
OS:Version,
  {dc82265d-489d-4e89-8cf2-b7b96cd1c79c}, !- Handle
  1.2.3;                                  !- Version Identifier

OS:Schedule:Constant,
  {e7ee812d-7dab-4eab-bc16-4d1230d7df91}, !- Handle
  Always On Discrete,                     !- Name
  {4999e976-74a0-4e83-8cfa-0993eb5b13cc}, !- Schedule Type Limits Name
  1;                                      !- Value

OS:ScheduleTypeLimits,
  {4999e976-74a0-4e83-8cfa-0993eb5b13cc}, !- Handle
  Always On Discrete Limits,              !- Name
  0,                                      !- Lower Limit Value {BasedOnField A4}
  1,                                      !- Upper Limit Value {BasedOnField A4}
  Discrete,                               !- Numeric Type
  Availability;                           !- Unit Type

OS:DefaultConstructionSet,
  {f7b68a59-87e0-4de6-8047-f75fef749334}, ! Handle
  Trenton Construction,                   ! Name
  {152ddeea-aea9-4449-ab48-16d5dc6c74bc}, ! Default Exterior Surface Constructions Name
  {823f18db-21f0-4bf9-8dbc-79f523759b20}, ! Default Interior Surface Constructions Name
  {10a56728-d349-4650-a259-a46789e73ea8}, ! Default Ground Contact Surface Constructions Name
  {6fdad2f5-d7e5-40a5-b7ce-12cc003855c6}, ! Default Exterior SubSurface Constructions Name
  {2ecf4f4c-85ee-4d44-969d-1cf3dc9d0651}, ! Default Interior SubSurface Constructions Name
  ,                                       ! Interior Partition Construction Name
  ,                                       ! Space Shading Construction Name
  ,                                       ! Building Shading Construction Name
  ;                                       ! Site Shading Construction Name

OS:ScheduleTypeLimits,
  {2f16a3ff-0402-442a-9cf7-f81e926463f0}, ! Handle
  TEMPERATURE,                            ! Name
  -60,                                    ! Lower Limit Value {BasedOnField A4}
  200,                                    ! Upper Limit Value {BasedOnField A4}
  CONTINUOUS,                             ! Numeric Type
  Temperature;                            ! Unit Type

OS:ScheduleTypeLimits,
  {9e11a0f2-c048-4496-8b91-90bb15eb0e86}, ! Handle
  FRACTION 73,                            ! Name
  0,                                      ! Lower Limit Value {BasedOnField A4}
  1,                                      ! Upper Limit Value {BasedOnField A4}
  CONTINUOUS,                             ! Numeric Type
  Dimensionless;                          ! Unit Type

OS:ScheduleTypeLimits,
  {8e327882-9283-4821-a03e-f4e80ac80ba2}, ! Handle
  ON/OFF 73,                              ! Name
  0,                                      ! Lower Limit Value {BasedOnField A4}
  1,                                      ! Upper Limit Value {BasedOnField A4}
  DISCRETE,                               ! Numeric Type
  Dimensionless;                          ! Unit Type

OS:DefaultScheduleSet,
  {8a81b2f4-b374-4017-b769-325c976f1555}, ! Handle
  NECB-A,                                 ! Name
  {6e356d32-26b3-472f-b14d-72eec40ab293}, ! Hours of Operation Schedule Name
  {0de1f806-11b6-452b-9ca2-3acd3df0229e}, ! Number of People Schedule Name
  ,                                       ! People Activity Level Schedule Name
  {eb37e738-0107-41d9-b561-66999156d864}, ! Lighting Schedule Name
  {f7ed7642-98f4-44a6-b141-ac8c49a325f6}, ! Electric Equipment Schedule Name
  ,                                       ! Gas Equipment Schedule Name
  {a2c7a81f-7fc1-4b23-8c80-5b0f2903e1b5}, ! Hot Water Equipment Schedule Name
  ,                                       ! Infiltration Schedule Name
  ,                                       ! Steam Equipment Schedule Name
  {87c029bd-c907-4381-beb3-4e3e3f432fda}; ! Other Equipment Schedule Name

OS:ScheduleTypeLimits,
  {9a0cc8c6-8226-4b3b-8297-643427785726}, ! Handle
  TEMPERATURE 1,                          ! Name
  -60,                                    ! Lower Limit Value {BasedOnField A4}
  200,                                    ! Upper Limit Value {BasedOnField A4}
  CONTINUOUS,                             ! Numeric Type
  Temperature;                            ! Unit Type

OS:ScheduleTypeLimits,
  {00e16ec5-d2a8-43bb-b89c-c1028b7b04d0}, ! Handle
  FRACTION 1,                             ! Name
  0,                                      ! Lower Limit Value {BasedOnField A4}
  1,                                      ! Upper Limit Value {BasedOnField A4}
  CONTINUOUS,                             ! Numeric Type
  Dimensionless;                          ! Unit Type

OS:ScheduleTypeLimits,
  {8ee09077-0490-4632-b9fa-8f6fca11bd4a}, ! Handle
  ON/OFF 1,                               ! Name
  0,                                      ! Lower Limit Value {BasedOnField A4}
  1,                                      ! Upper Limit Value {BasedOnField A4}
  DISCRETE,                               ! Numeric Type
  Dimensionless;                          ! Unit Type

OS:Schedule:Ruleset,
  {0de1f806-11b6-452b-9ca2-3acd3df0229e}, ! Handle
  NECB-A-Occ,                             ! Name
  {0cf61371-72f1-4920-b268-ba1720395304}, ! Schedule Type Limits Name
  {03f2ac1d-a8c3-4e95-a478-7feb9a61c88d}; ! Default Day Schedule Name

OS:Schedule:Day,
  {03f2ac1d-a8c3-4e95-a478-7feb9a61c88d}, ! Handle
  Schedule Day 1,                         ! Name
  {0cf61371-72f1-4920-b268-ba1720395304}, ! Schedule Type Limits Name
  ,                                       ! Interpolate to Timestep
  24,                                     ! Hour 1
  0,                                      ! Minute 1
  0;                                      ! Value Until Time 1

OS:Schedule:Day,
  {a9da951d-6704-4a0a-90b8-791bed31dae8}, ! Handle
  wkdNECB-A-Occ,                          ! Name
  {9e11a0f2-c048-4496-8b91-90bb15eb0e86}, ! Schedule Type Limits Name
  ,                                       ! Interpolate to Timestep
  1,                                      ! Hour 1
  0,                                      ! Minute 1
  0,                                      ! Value Until Time 1
  2,                                      ! Hour 2
  0,                                      ! Minute 2
  0,                                      ! Value Until Time 2
  3,                                      ! Hour 3
  0,                                      ! Minute 3
  0,                                      ! Value Until Time 3
  4,                                      ! Hour 4
  0,                                      ! Minute 4
  0,                                      ! Value Until Time 4
  5,                                      ! Hour 5
  0,                                      ! Minute 5
  0,                                      ! Value Until Time 5
  6,                                      ! Hour 6
  0,                                      ! Minute 6
  0,                                      ! Value Until Time 6
  7,                                      ! Hour 7
  0,                                      ! Minute 7
  0,                                      ! Value Until Time 7
  8,                                      ! Hour 8
  0,                                      ! Minute 8
  0.1,                                    ! Value Until Time 8
  9,                                      ! Hour 9
  0,                                      ! Minute 9
  0.7,                                    ! Value Until Time 9
  10,                                     ! Hour 10
  0,                                      ! Minute 10
  0.9,                                    ! Value Until Time 10
  11,                                     ! Hour 11
  0,                                      ! Minute 11
  0.9,                                    ! Value Until Time 11
  12,                                     ! Hour 12
  0,                                      ! Minute 12
  0.9,                                    ! Value Until Time 12
  13,                                     ! Hour 13
  0,                                      ! Minute 13
  0.5,                                    ! Value Until Time 13
  14,                                     ! Hour 14
  0,                                      ! Minute 14
  0.5,                                    ! Value Until Time 14
  15,                                     ! Hour 15
  0,                                      ! Minute 15
  0.9,                                    ! Value Until Time 15
  16,                                     ! Hour 16
  0,                                      ! Minute 16
  0.9,                                    ! Value Until Time 16
  17,                                     ! Hour 17
  0,                                      ! Minute 17
  0.9,                                    ! Value Until Time 17
  18,                                     ! Hour 18
  0,                                      ! Minute 18
  0.7,                                    ! Value Until Time 18
  19,                                     ! Hour 19
  0,                                      ! Minute 19
  0.3,                                    ! Value Until Time 19
  20,                                     ! Hour 20
  0,                                      ! Minute 20
  0.1,                                    ! Value Until Time 20
  21,                                     ! Hour 21
  0,                                      ! Minute 21
  0.1,                                    ! Value Until Time 21
  22,                                     ! Hour 22
  0,                                      ! Minute 22
  0.1,                                    ! Value Until Time 22
  23,                                     ! Hour 23
  0,                                      ! Minute 23
  0.1,                                    ! Value Until Time 23
  24,                                     ! Hour 24
  0,                                      ! Minute 24
  0;                                      ! Value Until Time 24

OS:Schedule:Day,
  {de9b460c-9e66-42c1-a67d-73105bbbaa28}, ! Handle
  satNECB-A-Occ,                          ! Name
  {9e11a0f2-c048-4496-8b91-90bb15eb0e86}, ! Schedule Type Limits Name
  ,                                       ! Interpolate to Timestep
  1,                                      ! Hour 1
  0,                                      ! Minute 1
  0,                                      ! Value Until Time 1
  2,                                      ! Hour 2
  0,                                      ! Minute 2
  0,                                      ! Value Until Time 2
  3,                                      ! Hour 3
  0,                                      ! Minute 3
  0,                                      ! Value Until Time 3
  4,                                      ! Hour 4
  0,                                      ! Minute 4
  0,                                      ! Value Until Time 4
  5,                                      ! Hour 5
  0,                                      ! Minute 5
  0,                                      ! Value Until Time 5
  6,                                      ! Hour 6
  0,                                      ! Minute 6
  0,                                      ! Value Until Time 6
  7,                                      ! Hour 7
  0,                                      ! Minute 7
  0,                                      ! Value Until Time 7
  8,                                      ! Hour 8
  0,                                      ! Minute 8
  0,                                      ! Value Until Time 8
  9,                                      ! Hour 9
  0,                                      ! Minute 9
  0,                                      ! Value Until Time 9
  10,                                     ! Hour 10
  0,                                      ! Minute 10
  0,                                      ! Value Until Time 10
  11,                                     ! Hour 11
  0,                                      ! Minute 11
  0,                                      ! Value Until Time 11
  12,                                     ! Hour 12
  0,                                      ! Minute 12
  0,                                      ! Value Until Time 12
  13,                                     ! Hour 13
  0,                                      ! Minute 13
  0,                                      ! Value Until Time 13
  14,                                     ! Hour 14
  0,                                      ! Minute 14
  0,                                      ! Value Until Time 14
  15,                                     ! Hour 15
  0,                                      ! Minute 15
  0,                                      ! Value Until Time 15
  16,                                     ! Hour 16
  0,                                      ! Minute 16
  0,                                      ! Value Until Time 16
  17,                                     ! Hour 17
  0,                                      ! Minute 17
  0,                                      ! Value Until Time 17
  18,                                     ! Hour 18
  0,                                      ! Minute 18
  0,                                      ! Value Until Time 18
  19,                                     ! Hour 19
  0,                                      ! Minute 19
  0,                                      ! Value Until Time 19
  20,                                     ! Hour 20
  0,                                      ! Minute 20
  0,                                      ! Value Until Time 20
  21,                                     ! Hour 21
  0,                                      ! Minute 21
  0,                                      ! Value Until Time 21
  22,                                     ! Hour 22
  0,                                      ! Minute 22
  0,                                      ! Value Until Time 22
  23,                                     ! Hour 23
  0,                                      ! Minute 23
  0,                                      ! Value Until Time 23
  24,                                     ! Hour 24
  0,                                      ! Minute 24
  0;                                      ! Value Until Time 24

OS:Schedule:Day,
  {ea936170-376c-4ebd-ba99-b93648064852}, ! Handle
  sunNECB-A-Occ,                          ! Name
  {9e11a0f2-c048-4496-8b91-90bb15eb0e86}, ! Schedule Type Limits Name
  ,                                       ! Interpolate to Timestep
  1,                                      ! Hour 1
  0,                                      ! Minute 1
  0,                                      ! Value Until Time 1
  2,                                      ! Hour 2
  0,                                      ! Minute 2
  0,                                      ! Value Until Time 2
  3,                                      ! Hour 3
  0,                                      ! Minute 3
  0,                                      ! Value Until Time 3
  4,                                      ! Hour 4
  0,                                      ! Minute 4
  0,                                      ! Value Until Time 4
  5,                                      ! Hour 5
  0,                                      ! Minute 5
  0,                                      ! Value Until Time 5
  6,                                      ! Hour 6
  0,                                      ! Minute 6
  0,                                      ! Value Until Time 6
  7,                                      ! Hour 7
  0,                                      ! Minute 7
  0,                                      ! Value Until Time 7
  8,                                      ! Hour 8
  0,                                      ! Minute 8
  0,                                      ! Value Until Time 8
  9,                                      ! Hour 9
  0,                                      ! Minute 9
  0,                                      ! Value Until Time 9
  10,                                     ! Hour 10
  0,                                      ! Minute 10
  0,                                      ! Value Until Time 10
  11,                                     ! Hour 11
  0,                                      ! Minute 11
  0,                                      ! Value Until Time 11
  12,                                     ! Hour 12
  0,                                      ! Minute 12
  0,                                      ! Value Until Time 12
  13,                                     ! Hour 13
  0,                                      ! Minute 13
  0,                                      ! Value Until Time 13
  14,                                     ! Hour 14
  0,                                      ! Minute 14
  0,                                      ! Value Until Time 14
  15,                                     ! Hour 15
  0,                                      ! Minute 15
  0,                                      ! Value Until Time 15
  16,                                     ! Hour 16
  0,                                      ! Minute 16
  0,                                      ! Value Until Time 16
  17,                                     ! Hour 17
  0,                                      ! Minute 17
  0,                                      ! Value Until Time 17
  18,                                     ! Hour 18
  0,                                      ! Minute 18
  0,                                      ! Value Until Time 18
  19,                                     ! Hour 19
  0,                                      ! Minute 19
  0,                                      ! Value Until Time 19
  20,                                     ! Hour 20
  0,                                      ! Minute 20
  0,                                      ! Value Until Time 20
  21,                                     ! Hour 21
  0,                                      ! Minute 21
  0,                                      ! Value Until Time 21
  22,                                     ! Hour 22
  0,                                      ! Minute 22
  0,                                      ! Value Until Time 22
  23,                                     ! Hour 23
  0,                                      ! Minute 23
  0,                                      ! Value Until Time 23
  24,                                     ! Hour 24
  0,                                      ! Minute 24
  0;                                      ! Value Until Time 24

OS:Schedule:Rule,
  {bd63a5c7-59e8-4258-a7ff-38d1739a5904}, ! Handle
  wkdNECB-A-Occ rule,                     ! Name
  {0de1f806-11b6-452b-9ca2-3acd3df0229e}, ! Schedule Ruleset Name
  2,                                      ! Rule Order
  {29528dd1-593c-4f94-85d8-41aa6d340bfb}, ! Day Schedule Name
  No,                                     ! Apply Sunday
  Yes,                                    ! Apply Monday
  Yes,                                    ! Apply Tuesday
  Yes,                                    ! Apply Wednesday
  Yes,                                    ! Apply Thursday
  Yes,                                    ! Apply Friday
  No,                                     ! Apply Saturday
  ,                                       ! Apply Holiday
  DateRange,                              ! Date Specification Type
  1,                                      ! Start Month
  1,                                      ! Start Day
  12,                                     ! End Month
  31;                                     ! End Day

OS:Schedule:Day,
  {29528dd1-593c-4f94-85d8-41aa6d340bfb}, ! Handle
  wkdNECB-A-Occ 1,                        ! Name
  {0cf61371-72f1-4920-b268-ba1720395304}, ! Schedule Type Limits Name
  ,                                       ! Interpolate to Timestep
  1,                                      ! Hour 1
  0,                                      ! Minute 1
  0,                                      ! Value Until Time 1
  2,                                      ! Hour 2
  0,                                      ! Minute 2
  0,                                      ! Value Until Time 2
  3,                                      ! Hour 3
  0,                                      ! Minute 3
  0,                                      ! Value Until Time 3
  4,                                      ! Hour 4
  0,                                      ! Minute 4
  0,                                      ! Value Until Time 4
  5,                                      ! Hour 5
  0,                                      ! Minute 5
  0,                                      ! Value Until Time 5
  6,                                      ! Hour 6
  0,                                      ! Minute 6
  0,                                      ! Value Until Time 6
  7,                                      ! Hour 7
  0,                                      ! Minute 7
  0,                                      ! Value Until Time 7
  8,                                      ! Hour 8
  0,                                      ! Minute 8
  0.1,                                    ! Value Until Time 8
  9,                                      ! Hour 9
  0,                                      ! Minute 9
  0.7,                                    ! Value Until Time 9
  10,                                     ! Hour 10
  0,                                      ! Minute 10
  0.9,                                    ! Value Until Time 10
  11,                                     ! Hour 11
  0,                                      ! Minute 11
  0.9,                                    ! Value Until Time 11
  12,                                     ! Hour 12
  0,                                      ! Minute 12
  0.9,                                    ! Value Until Time 12
  13,                                     ! Hour 13
  0,                                      ! Minute 13
  0.5,                                    ! Value Until Time 13
  14,                                     ! Hour 14
  0,                                      ! Minute 14
  0.5,                                    ! Value Until Time 14
  15,                                     ! Hour 15
  0,                                      ! Minute 15
  0.9,                                    ! Value Until Time 15
  16,                                     ! Hour 16
  0,                                      ! Minute 16
  0.9,                                    ! Value Until Time 16
  17,                                     ! Hour 17
  0,                                      ! Minute 17
  0.9,                                    ! Value Until Time 17
  18,                                     ! Hour 18
  0,                                      ! Minute 18
  0.7,                                    ! Value Until Time 18
  19,                                     ! Hour 19
  0,                                      ! Minute 19
  0.3,                                    ! Value Until Time 19
  20,                                     ! Hour 20
  0,                                      ! Minute 20
  0.1,                                    ! Value Until Time 20
  21,                                     ! Hour 21
  0,                                      ! Minute 21
  0.1,                                    ! Value Until Time 21
  22,                                     ! Hour 22
  0,                                      ! Minute 22
  0.1,                                    ! Value Until Time 22
  23,                                     ! Hour 23
  0,                                      ! Minute 23
  0.1,                                    ! Value Until Time 23
  24,                                     ! Hour 24
  0,                                      ! Minute 24
  0;                                      ! Value Until Time 24

OS:Schedule:Rule,
  {e086817e-ec9b-4f6b-af8a-9210f043f851}, ! Handle
  satNECB-A-Occrule,                      ! Name
  {0de1f806-11b6-452b-9ca2-3acd3df0229e}, ! Schedule Ruleset Name
  1,                                      ! Rule Order
  {12d4c30c-9ff2-44c6-9904-dc8dd4af257e}, ! Day Schedule Name
  No,                                     ! Apply Sunday
  No,                                     ! Apply Monday
  No,                                     ! Apply Tuesday
  No,                                     ! Apply Wednesday
  No,                                     ! Apply Thursday
  No,                                     ! Apply Friday
  Yes,                                    ! Apply Saturday
  ,                                       ! Apply Holiday
  DateRange,                              ! Date Specification Type
  1,                                      ! Start Month
  1,                                      ! Start Day
  12,                                     ! End Month
  31;                                     ! End Day

OS:Schedule:Day,
  {12d4c30c-9ff2-44c6-9904-dc8dd4af257e}, ! Handle
  satNECB-A-Occ 1,                        ! Name
  {0cf61371-72f1-4920-b268-ba1720395304}, ! Schedule Type Limits Name
  ,                                       ! Interpolate to Timestep
  1,                                      ! Hour 1
  0,                                      ! Minute 1
  0,                                      ! Value Until Time 1
  2,                                      ! Hour 2
  0,                                      ! Minute 2
  0,                                      ! Value Until Time 2
  3,                                      ! Hour 3
  0,                                      ! Minute 3
  0,                                      ! Value Until Time 3
  4,                                      ! Hour 4
  0,                                      ! Minute 4
  0,                                      ! Value Until Time 4
  5,                                      ! Hour 5
  0,                                      ! Minute 5
  0,                                      ! Value Until Time 5
  6,                                      ! Hour 6
  0,                                      ! Minute 6
  0,                                      ! Value Until Time 6
  7,                                      ! Hour 7
  0,                                      ! Minute 7
  0,                                      ! Value Until Time 7
  8,                                      ! Hour 8
  0,                                      ! Minute 8
  0,                                      ! Value Until Time 8
  9,                                      ! Hour 9
  0,                                      ! Minute 9
  0,                                      ! Value Until Time 9
  10,                                     ! Hour 10
  0,                                      ! Minute 10
  0,                                      ! Value Until Time 10
  11,                                     ! Hour 11
  0,                                      ! Minute 11
  0,                                      ! Value Until Time 11
  12,                                     ! Hour 12
  0,                                      ! Minute 12
  0,                                      ! Value Until Time 12
  13,                                     ! Hour 13
  0,                                      ! Minute 13
  0,                                      ! Value Until Time 13
  14,                                     ! Hour 14
  0,                                      ! Minute 14
  0,                                      ! Value Until Time 14
  15,                                     ! Hour 15
  0,                                      ! Minute 15
  0,                                      ! Value Until Time 15
  16,                                     ! Hour 16
  0,                                      ! Minute 16
  0,                                      ! Value Until Time 16
  17,                                     ! Hour 17
  0,                                      ! Minute 17
  0,                                      ! Value Until Time 17
  18,                                     ! Hour 18
  0,                                      ! Minute 18
  0,                                      ! Value Until Time 18
  19,                                     ! Hour 19
  0,                                      ! Minute 19
  0,                                      ! Value Until Time 19
  20,                                     ! Hour 20
  0,                                      ! Minute 20
  0,                                      ! Value Until Time 20
  21,                                     ! Hour 21
  0,                                      ! Minute 21
  0,                                      ! Value Until Time 21
  22,                                     ! Hour 22
  0,                                      ! Minute 22
  0,                                      ! Value Until Time 22
  23,                                     ! Hour 23
  0,                                      ! Minute 23
  0,                                      ! Value Until Time 23
  24,                                     ! Hour 24
  0,                                      ! Minute 24
  0;                                      ! Value Until Time 24

OS:Schedule:Rule,
  {884e551f-73e4-4869-ad23-b1379f375c8d}, ! Handle
  sunNECB-A-Occrule,                      ! Name
  {0de1f806-11b6-452b-9ca2-3acd3df0229e}, ! Schedule Ruleset Name
  0,                                      ! Rule Order
  {1a525f56-9f21-4ba6-812c-d03cf14c4aff}, ! Day Schedule Name
  Yes,                                    ! Apply Sunday
  No,                                     ! Apply Monday
  No,                                     ! Apply Tuesday
  No,                                     ! Apply Wednesday
  No,                                     ! Apply Thursday
  No,                                     ! Apply Friday
  No,                                     ! Apply Saturday