
OS:Version,
  {c83af2b4-db17-44c6-956c-24bba9a79d58}, !- Handle
  1.2.3;                                  !- Version Identifier

OS:Schedule:Constant,
  {f5c0f38a-b805-435c-9484-7d829103f315}, !- Handle
  Always On Discrete,                     !- Name
  {67b2de9f-5082-40f6-a77c-e25a7e5c1591}, !- Schedule Type Limits Name
  1;                                      !- Value

OS:ScheduleTypeLimits,
  {67b2de9f-5082-40f6-a77c-e25a7e5c1591}, !- Handle
  Always On Discrete Limits,              !- Name
  0,                                      !- Lower Limit Value {BasedOnField A4}
  1,                                      !- Upper Limit Value {BasedOnField A4}
  Discrete,                               !- Numeric Type
  Availability;                           !- Unit Type

OS:DefaultSubSurfaceConstructions,
  {edc7805e-40b6-44a8-8a30-2abcacbc0e12}, ! Handle
  000_Interior_DefSubCons,                ! Name
  ,                                       ! Fixed Window Construction Name
  ,                                       ! Operable Window Construction Name
  {50c40745-dec1-4c6e-b949-f5b7d35bddde}, ! Door Construction Name
  {d9aeeb91-bcf8-4de3-a151-fce5d304b9ae}, ! Glass Door Construction Name
  ,                                       ! Overhead Door Construction Name
  {d9aeeb91-bcf8-4de3-a151-fce5d304b9ae}, ! Skylight Construction Name
  {616c3f62-1bcf-4ea7-be5a-7112157f112c}, ! Tubular Daylight Dome Construction Name
  {616c3f62-1bcf-4ea7-be5a-7112157f112c}; ! Tubular Daylight Diffuser Construction Name

OS:DefaultSubSurfaceConstructions,
  {2ecf4f4c-85ee-4d44-969d-1cf3dc9d0651}, ! Handle
  ASHRAE_189.1-2009_ClimateZone 4-5 (mdoff)_Exterior_DefSubCons, ! Name
  {2b0e046e-6afd-4ce3-a332-ccee378f28b7}, ! Fixed Window Construction Name
  ,                                       ! Operable Window Construction Name
  {50c40745-dec1-4c6e-b949-f5b7d35bddde}, ! Door Construction Name
  ,                                       ! Glass Door Construction Name
  ,                                       ! Overhead Door Construction Name
  ,                                       ! Skylight Construction Name
  ,                                       ! Tubular Daylight Dome Construction Name
  ;                                       ! Tubular Daylight Diffuser Construction Name

OS:DefaultSurfaceConstructions,
  {3c99188a-5f80-46f5-940a-340304459562}, ! Handle
  000_Ground_DefSurfCons,                 ! Name
  {76520892-48c0-480b-8327-91633ffe524e}, ! Floor Construction Name
  ,                                       ! Wall Construction Name
  ;                                       ! Roof Ceiling Construction Name

OS:DefaultSurfaceConstructions,
  {67c7afba-e420-4d66-9646-246e304b4b86}, ! Handle
  000_Interior_DefSurfCons,               ! Name
  ,                                       ! Floor Construction Name
  {98413ba2-7082-4c17-b3ae-39c1ce46b6de}, ! Wall Construction Name
  ;                                       ! Roof Ceiling Construction Name

OS:DefaultSurfaceConstructions,
  {10a56728-d349-4650-a259-a46789e73ea8}, ! Handle
  ASHRAE_189.1-2009_ClimateZone 4-5 (mdoff)_Exterior_DefSurfCons, ! Name
  {4e2a7644-b8aa-4738-a1b1-d6a786df4618}, ! Floor Construction Name
  {4142afbf-1822-4445-8541-c28804fb87e5}, ! Wall Construction Name
  {d3750d6a-f40d-481e-8376-c07aa53bfe23}; ! Roof Ceiling Construction Name

OS:Facility,
  {cf302468-3453-4b1f-a1ed-b05a0da3cd5c}; ! Handle

OS:Rendering:Color,
  {3ac3ab6e-838a-4987-a923-7ed16f076f1c}, ! Handle
  000_ExtSlabCarpet_4in_ClimateZone 1-8_Color, ! Name
  198.9,                                  ! Rendering Red Value
  0.0,                                    ! Rendering Green Value
  0.0;                                    ! Rendering Blue Value

OS:Rendering:Color,
  {336262c3-ed6f-4bd5-bd5b-d932449932e2}, ! Handle
  000_Exterior Door_Color,                ! Name
  124.3125,                               ! Rendering Red Value
  74.5875,                                ! Rendering Green Value
  89.505;                                 ! Rendering Blue Value

OS:Rendering:Color,
  {5258d57d-6d17-494e-9c3b-4c56919ea2f6}, ! Handle
  000_Exterior Window_Color,              ! Name
  198.9,                                  ! Rendering Red Value
  0.0,                                    ! Rendering Green Value
  59.6699999999999,                       ! Rendering Blue Value
  ;                                       ! Rendering Alpha Value

OS:Rendering:Color,
  {d215b2b0-0241-4ad0-b07c-0df46d01f486}, ! Handle
  000_Interior Ceiling_Color,             ! Name
  219.096,                                ! Rendering Red Value
  142.8,                                  ! Rendering Green Value
  255.0;                                  ! Rendering Blue Value

OS:Rendering:Color,
  {10b662a5-17eb-4067-8ab6-1c6c92619ced}, ! Handle
  000_Interior Door_Color,                ! Name
  168.606,                                ! Rendering Red Value
  255.0,                                  ! Rendering Green Value
  142.8;                                  ! Rendering Blue Value

OS:Rendering:Color,
  {994d202e-504a-4148-84f1-46b26fd74ce7}, ! Handle
  000_Interior Floor_Color,               ! Name
  255.0,                                  ! Rendering Red Value
  142.8,                                  ! Rendering Green Value
  142.8;                                  ! Rendering Blue Value

OS:Rendering:Color,
  {3345a47f-3148-4884-93eb-8d5a5a0a785d}, ! Handle
  000_Interior Partition_Color,           ! Name
  165.24,                                 ! Rendering Red Value
  142.8,                                  ! Rendering Green Value
  255.0;                                  ! Rendering Blue Value

OS:Rendering:Color,
  {a4e4bf50-8f71-4600-993d-4ea1ca2afada}, ! Handle
  000_Interior Wall_Color,                ! Name
  142.8,                                  ! Rendering Red Value
  201.144,                                ! Rendering Green Value
  255.0;                                  ! Rendering Blue Value

OS:Rendering:Color,
  {6a66ec3d-9ebd-481c-931c-fad8647d508d}, ! Handle
  000_Interior Window_Color,              ! Name
  235.926,                                ! Rendering Red Value
  255.0,                                  ! Rendering Green Value
  142.8;                                  ! Rendering Blue Value

OS:Rendering:Color,
  {ffe7c1fb-032c-4ec1-a24d-8d1e06bad54e}, ! Handle
  ASHRAE_189.1-2009_ClimateZone 4-8_MediumOffice_Color, ! Name
  120.36,                                 ! Rendering Red Value
  236.64,                                 ! Rendering Green Value
  201.756;                                ! Rendering Blue Value

OS:Rendering:Color,
  {00efa528-c739-4942-bb54-971e350d5081}, ! Handle
  ASHRAE_189.1-2009_ExtRoof_IEAD_ClimateZone 2-5_Color, ! Name
  150.1695,                               ! Rendering Red Value
  14.9175,                                ! Rendering Green Value
  183.9825,                               ! Rendering Blue Value
  ;                                       ! Rendering Alpha Value

OS:Rendering:Color,
  {6d1599e9-d10c-498e-a73e-8cbb2dcd9066}, ! Handle
  ASHRAE_189.1-2009_ExtWall_SteelFrame_ClimateZone 4-8_Color, ! Name
  21.1139999999998,                       ! Rendering Red Value
  17.2125,                                ! Rendering Green Value
  212.2875;                               ! Rendering Blue Value

OS:Rendering:Color,
  {d43e1bbd-8f3c-4474-9188-3505c2d039e8}, ! Handle
  ASHRAE_189.1-2009_ExtWindow_ClimateZone 4-5_Color, ! Name
  109.6653,                               ! Rendering Red Value
  238.935,                                ! Rendering Green Value
  56.865,                                 ! Rendering Blue Value
  ;                                       ! Rendering Alpha Value

OS:Rendering:Color,
  {f16d79c6-23ca-4509-a014-2175d9ec5914}, ! Handle
  Air_Wall_Color,                         ! Name
  255,                                    ! Rendering Red Value
  69,                                     ! Rendering Green Value
  0,                                      ! Rendering Blue Value
  ;                                       ! Rendering Alpha Value

OS:Rendering:Color,
  {dca0f93c-b0ab-49ea-a058-869b6aa0620c}, ! Handle
  Empty Space Type Color,                 ! Name
  128.0,                                  ! Rendering Red Value
  128.0,                                  ! Rendering Green Value
  128.0;                                  ! Rendering Blue Value

OS:RunPeriodControl:DaylightSavingTime,
  {693caa13-3e74-48ae-8045-a3a848c2807a}, ! Handle
  2nd Sunday in March,                    ! Start Date
  1st Sunday in November;                 ! End Date

OS:RunPeriodControl:SpecialDays,
  {01427c50-9f95-4617-88ea-a0e9186837e8}, ! Handle
  Christmas,                              ! Name
  December 25,                            ! Start Date
  1,                                      ! Duration
  Holiday;                                ! Special Day Type

OS:RunPeriodControl:SpecialDays,
  {4f7bd1ef-5d66-416c-b7cd-645da80eb8db}, ! Handle
  Columbus Day,                           ! Name
  2nd Monday in October,                  ! Start Date
  1,                                      ! Duration
  Holiday;                                ! Special Day Type

OS:RunPeriodControl:SpecialDays,
  {c89b3655-49ce-4e5d-97c9-b2095fd6db9c}, ! Handle
  Independence Day,                       ! Name
  July 4,                                 ! Start Date
  1,                                      ! Duration
  Holiday;                                ! Special Day Type

OS:RunPeriodControl:SpecialDays,
  {bc7c5297-77e3-4f10-bc89-f8f14a796e35}, ! Handle
  Labor Day,                              ! Name
  1st Monday in September,                ! Start Date
  1,                                      ! Duration
  Holiday;                                ! Special Day Type

OS:RunPeriodControl:SpecialDays,
  {d5293439-b4e0-42c4-ae8f-39daf0fa9e60}, ! Handle
  MLK Day,                                ! Name
  3rd Monday in January,                  ! Start Date
  1,                                      ! Duration
  Holiday;                                ! Special Day Type

OS:RunPeriodControl:SpecialDays,
  {5053f38e-2fe7-4c10-afbd-cc1965219b26}, ! Handle
  Memorial Day,                           ! Name
  Last Monday in May,                     ! Start Date
  1,                                      ! Duration
  Holiday;                                ! Special Day Type

OS:RunPeriodControl:SpecialDays,
  {246c2b99-5ff6-48d4-a556-71bb50fed76b}, ! Handle
  New Years Day,                          ! Name
  January 1,                              ! Start Date
  1,                                      ! Duration
  Holiday;                                ! Special Day Type

OS:RunPeriodControl:SpecialDays,
  {086bd7a3-d72e-44c0-acc9-70d041c4c2f5}, ! Handle
  Presidents Day,                         ! Name
  3rd Monday in February,                 ! Start Date
  1,                                      ! Duration
  Holiday;                                ! Special Day Type

OS:RunPeriodControl:SpecialDays,
  {675b176b-6342-4e06-9b76-f297a6b58c55}, ! Handle
  Thanksgiving,                           ! Name
  4th Thursday in November,               ! Start Date
  1,                                      ! Duration
  Holiday;                                ! Special Day Type

OS:RunPeriodControl:SpecialDays,
  {4d4d7ba3-4fd8-4f69-9194-9b7ffe61cc8d}, ! Handle
  Veterans Day,                           ! Name
  November 11,                            ! Start Date
  1,                                      ! Duration
  Holiday;                                ! Special Day Type

OS:ScheduleTypeLimits,
  {a36b9707-67e9-4ac7-87d8-bca1cdc8d977}, ! Handle
  Any Number;                             ! Name

OS:ScheduleTypeLimits,
  {d5de7a23-6ee1-4151-a263-1bfb8dd0a2ce}, ! Handle
  Control Type,                           ! Name
  0,                                      ! Lower Limit Value
  4,                                      ! Upper Limit Value
  DISCRETE;                               ! Numeric Type

OS:ScheduleTypeLimits,
  {34a5bba4-16c2-43a7-83db-1840d06ef230}, ! Handle
  Fraction,                               ! Name
  0,                                      ! Lower Limit Value
  1,                                      ! Upper Limit Value
  CONTINUOUS;                             ! Numeric Type

OS:ScheduleTypeLimits,
  {860056cb-f9ed-447b-aaaf-630c68f1cc0e}, ! Handle
  On/Off,                                 ! Name
  0,                                      ! Lower Limit Value
  1,                                      ! Upper Limit Value
  DISCRETE;                               ! Numeric Type

OS:SimulationControl,
  {657ba578-29ab-439c-87b6-218865343bf2}, ! Handle
  No,                                     ! Do Zone Sizing Calculation
  No,                                     ! Do System Sizing Calculation
  No,                                     ! Do Plant Sizing Calculation
  No,                                     ! Run Simulation for Sizing Periods
  Yes,                                    ! Run Simulation for Weather File Run Periods
  0.040000000000000001,                   ! Loads Convergence Tolerance Value
  0.40000000000000002,                    ! Temperature Convergence Tolerance Value
  FullExterior,                           ! Solar Distribution
  25;                                     ! Maximum Number of Warmup Days

OS:Timestep,
  {8a10f874-3682-42ca-98c2-f4b68d8deb26}, ! Handle
  4;                                      ! Number of Timesteps per Hour

OS:DesignSpecification:OutdoorAir,
  {1c61d1cd-d199-4946-9ac5-8496d110c280}, ! Handle
  MediumOffice_Outdoor_Air,               ! Name
  Sum,                                    ! Outdoor Air Method
  0.0107645200000431,                     ! Outdoor Air Flow per Person
  0.0,                                    ! Outdoor Air Flow per Floor Area
  0,                                      ! Outdoor Air Flow Rate
  0,                                      ! Outdoor Air Flow Air Changes per Hour
  ;                                       ! Outdoor Air Flow Rate Fraction Schedule Name

OS:ScheduleTypeLimits,
  {d0f0b867-4833-4c23-97b4-2d2103a11327}, ! Handle
  ActivityLevel,                          ! Name
  0,                                      ! Lower Limit Value {BasedOnField A4}
  ,                                       ! Upper Limit Value {BasedOnField A4}
  Continuous,                             ! Numeric Type
  ActivityLevel;                          ! Unit Type

OS:ScheduleTypeLimits,
  {b2323053-24fd-48bf-91c8-981699edab0b}, ! Handle
  Temperature 1,                          ! Name
  ,                                       ! Lower Limit Value {BasedOnField A4}
  ,                                       ! Upper Limit Value {BasedOnField A4}
  Continuous,                             ! Numeric Type
  Temperature;                            ! Unit Type

OS:ScheduleTypeLimits,
  {a1b286a2-734b-4de1-aca9-74651817c459}, ! Handle
  Temperature 2,                          ! Name
  ,                                       ! Lower Limit Value {BasedOnField A4}
  ,                                       ! Upper Limit Value {BasedOnField A4}
  Continuous,                             ! Numeric Type
  Temperature;                            ! Unit Type

OS:BuildingStory,
  {e1622a3d-85ef-4c1a-8e97-3987fdc77be6}, ! Handle
  Building Story 1,                       ! Name
  0,                                      ! Nominal Z Coordinate {m}
  2.5146,                                 ! Nominal Floor to Floor Height {m}
  ,                                       ! Default Construction Set Name
  ,                                       ! Default Schedule Set Name
  {16b270bb-c8bb-43c9-b617-986cb08e4a41}; ! Group Rendering Name

OS:Space,
  {a0233466-0274-4420-9e8d-7f86e8ad1f87}, ! Handle
  South Sleeping Quarters,                ! Name
  {a7cb95de-2df7-40a6-a8d7-0eea01f02615}, ! Space Type Name
  ,                                       ! Default Construction Set Name
  ,                                       ! Default Schedule Set Name
  -0,                                     ! Direction of Relative North {deg}
  0,                                      ! X Origin {m}
  0,                                      ! Y Origin {m}
  0,                                      ! Z Origin {m}
  {e1622a3d-85ef-4c1a-8e97-3987fdc77be6}, ! Building Story Name
  {5eeffa4c-f9f0-40d6-bfde-55c450ed73fd}, ! Thermal Zone Name
  ,                                       ! Part of Total Floor Area
  {9bd1a76f-39da-4f0c-afe4-fa7040016643}; ! Design Specification Outdoor Air Object Name

OS:Surface,
  {3503040c-7d84-41e3-8cd4-db58107fc0d9}, ! Handle
  Surface 1,                              ! Name
  Floor,                                  ! Surface Type
  ,                                       ! Construction Name
  {a0233466-0274-4420-9e8d-7f86e8ad1f87}, ! Space Name
  Ground,                                 ! Outside Boundary Condition
  ,                                       ! Outside Boundary Condition Object
  NoSun,                                  ! Sun Exposure
  NoWind,                                 ! Wind Exposure
  ,                                       ! View Factor to Ground
  ,                                       ! Number of Vertices
  48.63, 6.14, 0,                         !- X,Y,Z Vertex 1 {m}
  48.63, 0, 0,                            !- X,Y,Z Vertex 2 {m}
  0, 0, 0,                                !- X,Y,Z Vertex 3 {m}
  0, 6.14, 0;                             !- X,Y,Z Vertex 4 {m}

OS:Surface,
  {e1a1dfa9-f001-4616-a1bd-315815a8707c}, ! Handle
  Surface 2,                              ! Name
  Wall,                                   ! Surface Type
  ,                                       ! Construction Name
  {a0233466-0274-4420-9e8d-7f86e8ad1f87}, ! Space Name
  Outdoors,                               ! Outside Boundary Condition
  ,                                       ! Outside Boundary Condition Object
  SunExposed,                             ! Sun Exposure
  WindExposed,                            ! Wind Exposure
  ,                                       ! View Factor to Ground
  ,                                       ! Number of Vertices
  0, 6.14, 2.5146,                        !- X,Y,Z Vertex 1 {m}
  0, 6.14, 0,                             !- X,Y,Z Vertex 2 {m}
  0, 0, 0,                                !- X,Y,Z Vertex 3 {m}
  0, 0, 2.5146;                           !- X,Y,Z Vertex 4 {m}

OS:Surface,
  {e221dc83-fe43-4575-9904-ac4503a4ab3e}, ! Handle
  Surface 3,                              ! Name
  Wall,                                   ! Surface Type
  ,                                       ! Construction Name
  {a0233466-0274-4420-9e8d-7f86e8ad1f87}, ! Space Name
  Outdoors,                               ! Outside Boundary Condition
  ,                                       ! Outside Boundary Condition Object
  SunExposed,                             ! Sun Exposure
  WindExposed,                            ! Wind Exposure
  ,                                       ! View Factor to Ground
  ,                                       ! Number of Vertices
  19.7, 6.14, 2.5146,                     !- X,Y,Z Vertex 1 {m}
  19.7, 6.14, 0,                          !- X,Y,Z Vertex 2 {m}
  0, 6.14, 0,                             !- X,Y,Z Vertex 3 {m}
  0, 6.14, 2.5146;                        !- X,Y,Z Vertex 4 {m}

OS:Surface,
  {d7e83ec1-4ad0-420a-915e-8fbb9a00038c}, ! Handle
  Surface 4,                              ! Name
  Wall,                                   ! Surface Type
  ,                                       ! Construction Name
  {a0233466-0274-4420-9e8d-7f86e8ad1f87}, ! Space Name
  Surface,                                ! Outside Boundary Condition
  {bf1cc009-f9d7-44a4-8c74-278b80bc9954}, ! Outside Boundary Condition Object
  NoSun,                                  ! Sun Exposure
  NoWind,                                 ! Wind Exposure
  ,                                       ! View Factor to Ground
  ,                                       ! Number of Vertices
  26.33, 6.14, 2.5146,                    !- X,Y,Z Vertex 1 {m}
  26.33, 6.14, 0,                         !- X,Y,Z Vertex 2 {m}
  19.7, 6.14, 0,                          !- X,Y,Z Vertex 3 {m}
  19.7, 6.14, 2.5146;                     !- X,Y,Z Vertex 4 {m}

OS:Surface,
  {135de368-96a3-4609-a0c0-58d1085db250}, ! Handle
  Surface 5,                              ! Name
  Wall,                                   ! Surface Type
  ,                                       ! Construction Name
  {a0233466-0274-4420-9e8d-7f86e8ad1f87}, ! Space Name
  Outdoors,                               ! Outside Boundary Condition
  ,                                       ! Outside Boundary Condition Object
  SunExposed,                             ! Sun Exposure
  WindExposed,                            ! Wind Exposure
  ,                                       ! View Factor to Ground
  ,                                       ! Number of Vertices
  48.63, 6.14, 2.5146,                    !- X,Y,Z Vertex 1 {m}
  48.63, 6.14, 0,                         !- X,Y,Z Vertex 2 {m}
  26.33, 6.14, 0,                         !- X,Y,Z Vertex 3 {m}
  26.33, 6.14, 2.5146;                    !- X,Y,Z Vertex 4 {m}

OS:Surface,
  {df97c040-e16e-4b68-a069-ad1353e0165c}, ! Handle
  Surface 6,                              ! Name
  Wall,                                   ! Surface Type
  ,                                       ! Construction Name
  {a0233466-0274-4420-9e8d-7f86e8ad1f87}, ! Space Name
  Outdoors,                               ! Outside Boundary Condition
  ,                                       ! Outside Boundary Condition Object
  SunExposed,                             ! Sun Exposure
  WindExposed,                            ! Wind Exposure
  ,                                       ! View Factor to Ground
  ,                                       ! Number of Vertices
  48.63, 0, 2.5146,                       !- X,Y,Z Vertex 1 {m}
  48.63, 0, 0,                            !- X,Y,Z Vertex 2 {m}
  48.63, 6.14, 0,                         !- X,Y,Z Vertex 3 {m}
  48.63, 6.14, 2.5146;                    !- X,Y,Z Vertex 4 {m}

OS:Surface,
  {d6b9cc36-2306-4d16-94be-81174c05bcd1}, ! Handle
  Surface 7,                              ! Name
  Wall,                                   ! Surface Type
  ,                                       ! Construction Name
  {a0233466-0274-4420-9e8d-7f86e8ad1f87}, ! Space Name
  Outdoors,                               ! Outside Boundary Condition
  ,                                       ! Outside Boundary Condition Object
  SunExposed,                             ! Sun Exposure
  WindExposed,                            ! Wind Exposure
  ,                                       ! View Factor to Ground
  ,                                       ! Number of Vertices
  0, 0, 2.5146,                           !- X,Y,Z Vertex 1 {m}
  0, 0, 0,                                !- X,Y,Z Vertex 2 {m}
  48.63, 0, 0,                            !- X,Y,Z Vertex 3 {m}
  48.63, 0, 2.5146;                       !- X,Y,Z Vertex 4 {m}

OS:Surface,
  {da2eec8f-006f-4e78-9e0c-bbd61aa2f23e}, ! Handle
  Surface 8,                              ! Name
  RoofCeiling,                            ! Surface Type
  ,                                       ! Construction Name
  {a0233466-0274-4420-9e8d-7f86e8ad1f87}, ! Space Name
  Outdoors,                               ! Outside Boundary Condition
  ,                                       ! Outside Boundary Condition Object
  SunExposed,                             ! Sun Exposure
  WindExposed,                            ! Wind Exposure
  ,                                       ! View Factor to Ground
  ,                                       ! Number of Vertices
  48.63, 0, 2.5146,                       !- X,Y,Z Vertex 1 {m}
  48.63, 6.14, 2.5146,                    !- X,Y,Z Vertex 2 {m}
  0, 6.14, 2.5146,                        !- X,Y,Z Vertex 3 {m}
  0, 0, 2.5146;                           !- X,Y,Z Vertex 4 {m}

OS:Space,
  {6fde0e7c-710e-414d-a0f2-6c64145a0e1a}, ! Handle
  Washrooms,                              ! Name
  {3b7c0d4b-0a56-4b55-9f7f-d96819a59a3e}, ! Space Type Name
  ,                                       ! Default Construction Set Name
  ,                                       ! Default Schedule Set Name
  -0,                                     ! Direction of Relative North {deg}
  26.33,                                  ! X Origin {m}
  21.46,                                  ! Y Origin {m}
  0,                                      ! Z Origin {m}
  {e1622a3d-85ef-4c1a-8e97-3987fdc77be6}, ! Building Story Name
  {7db7de74-40be-4f19-8eb7-6e166423e507}, ! Thermal Zone Name
  ,                                       ! Part of Total Floor Area
  {46915aba-2b87-4c92-a5d6-e349ac6c70f8}; ! Design Specification Outdoor Air Object Name

OS:Surface,
  {6705497d-23b9-4a70-b6d4-864d937d337e}, ! Handle
  Surface 9,                              ! Name
  Floor,                                  ! Surface Type
  {76520892-48c0-480b-8327-91633ffe524e}, ! Construction Name
  {6fde0e7c-710e-414d-a0f2-6c64145a0e1a}, ! Space Name
  Ground,                                 ! Outside Boundary Condition
  ,                                       ! Outside Boundary Condition Object
  NoSun,                                  ! Sun Exposure
  NoWind,                                 ! Wind Exposure
  ,                                       ! View Factor to Ground
  ,                                       ! Number of Vertices
  0, 0, 0,                                !- X,Y,Z Vertex 1 {m}
  0, -15.32, 0,                           !- X,Y,Z Vertex 2 {m}
  -6.63, -15.32, 0,                       !- X,Y,Z Vertex 3 {m}
  -6.63, 0, 0;                            !- X,Y,Z Vertex 4 {m}

OS:Surface,
  {45535feb-6baa-4261-9187-41983acbc969}, ! Handle
  Surface 10,                             ! Name
  Wall,                                   ! Surface Type
  {4142afbf-1822-4445-8541-c28804fb87e5}, ! Construction Name
  {6fde0e7c-710e-414d-a0f2-6c64145a0e1a}, ! Space Name
  Outdoors,                               ! Outside Boundary Condition
  ,                                       ! Outside Boundary Condition Object
  SunExposed,                             ! Sun Exposure
  WindExposed,                            ! Wind Exposure
  ,                                       ! View Factor to Ground
  ,                                       ! Number of Vertices
  0, -15.32, 2.5146,                      !- X,Y,Z Vertex 1 {m}
  0, -15.32, 0,                           !- X,Y,Z Vertex 2 {m}
  0, 0, 0,                                !- X,Y,Z Vertex 3 {m}
  0, 0, 2.5146;                           !- X,Y,Z Vertex 4 {m}

OS:Surface,
  {bf1cc009-f9d7-44a4-8c74-278b80bc9954}, ! Handle
  Surface 11,                             ! Name
  Wall,                                   ! Surface Type
  ,                                       ! Construction Name
  {6fde0e7c-710e-414d-a0f2-6c64145a0e1a}, ! Space Name
  Surface,                                ! Outside Boundary Condition
  {d7e83ec1-4ad0-420a-915e-8fbb9a00038c}, ! Outside Boundary Condition Object
  NoSun,                                  ! Sun Exposure
  NoWind,                                 ! Wind Exposure
  ,                                       ! View Factor to Ground
  ,                                       ! Number of Vertices
  -6.63, -15.32, 2.5146,                  !- X,Y,Z Vertex 1 {m}
  -6.63, -15.32, 0,                       !- X,Y,Z Vertex 2 {m}
  0, -15.32, 0,                           !- X,Y,Z Vertex 3 {m}
  0, -15.32, 2.5146;                      !- X,Y,Z Vertex 4 {m}

OS:Surface,
  {1100417c-74d9-4830-b9b9-4343f66bfb2c}, ! Handle
  Surface 12,                             ! Name
  Wall,                                   ! Surface Type
  {4142afbf-1822-4445-8541-c28804fb87e5}, ! Construction Name
  {6fde0e7c-710e-414d-a0f2-6c64145a0e1a}, ! Space Name
  Outdoors,                               ! Outside Boundary Condition
  ,                                       ! Outside Boundary Condition Object
  SunExposed,                             ! Sun Exposure
  WindExposed,                            ! Wind Exposure
  ,                                       ! View Factor to Ground
  ,                                       ! Number of Vertices
  -6.63, 0, 2.5146,                       !- X,Y,Z Vertex 1 {m}
  -6.63, 0, 0,                            !- X,Y,Z Vertex 2 {m}
  -6.63, -15.32, 0,                       !- X,Y,Z Vertex 3 {m}
  -6.63, -15.32, 2.5146;                  !- X,Y,Z Vertex 4 {m}

OS:Surface,
  {e0e52b1e-1a33-41e1-b060-71dadf71de71}, ! Handle
  Surface 13,                             ! Name
  Wall,                                   ! Surface Type
  ,                                       ! Construction Name
  {6fde0e7c-710e-414d-a0f2-6c64145a0e1a}, ! Space Name
  Surface,                                ! Outside Boundary Condition
  {70d3504a-3062-45d1-a6b2-37c6975dd624}, ! Outside Boundary Condition Object
  NoSun,                                  ! Sun Exposure
  NoWind,                                 ! Wind Exposure
  ,                                       ! View Factor to Ground
  ,                                       ! Number of Vertices
  0, 0, 2.5146,                           !- X,Y,Z Vertex 1 {m}
  0, 0, 0,                                !- X,Y,Z Vertex 2 {m}
  -6.63, 0, 0,                            !- X,Y,Z Vertex 3 {m}
  -6.63, 0, 2.5146;                       !- X,Y,Z Vertex 4 {m}

OS:Surface,
  {673faa83-4156-4a3a-b465-9d6b06d35310}, ! Handle
  Surface 14,                             ! Name
  RoofCeiling,                            ! Surface Type
  {d3750d6a-f40d-481e-8376-c07aa53bfe23}, ! Construction Name