
OS:Version,
  {a15894f7-129b-43bb-898e-01f2514f874b}, !- Handle
  1.2.3;                                  !- Version Identifier

OS:Schedule:Constant,
  {6c64abee-db8f-4022-9f0d-b46cf23d6579}, !- Handle
  Always On Discrete,                     !- Name
  {bc6d02da-6ef4-435e-a851-54459a22fda9}, !- Schedule Type Limits Name
  1;                                      !- Value

OS:ScheduleTypeLimits,
  {bc6d02da-6ef4-435e-a851-54459a22fda9}, !- Handle
  Always On Discrete Limits,              !- Name
  0,                                      !- Lower Limit Value {BasedOnField A4}
  1,                                      !- Upper Limit Value {BasedOnField A4}
  Discrete,                               !- Numeric Type
  Availability;                           !- Unit Type

OS:Construction,
  {bf7a6673-5c75-47b0-9fb8-67dd3c74f3df}, ! Handle
  000_Exterior Window,                    ! Name
  {5258d57d-6d17-494e-9c3b-4c56919ea2f6}, ! Surface Rendering Name
  {f1c02e84-56ed-458b-88f2-c04a48b49010}, ! Layer 1
  {e206938a-22d6-40d6-a854-d669000ee30e}, ! Layer 2
  {f1c02e84-56ed-458b-88f2-c04a48b49010}; ! Layer 3

OS:Construction,
  {3506a07b-6579-4526-86ca-84b833269727}, ! Handle
  000_Interior Window,                    ! Name
  {6a66ec3d-9ebd-481c-931c-fad8647d508d}, ! Surface Rendering Name
  {f1c02e84-56ed-458b-88f2-c04a48b49010}; ! Layer 1

OS:DefaultConstructionSet,
  {8d276ca2-ac82-489c-8e07-395b89456514}, ! Handle
  Trenton_Construction_Set,               ! Name
  {10a56728-d349-4650-a259-a46789e73ea8}, ! Default Exterior Surface Constructions Name
  {67c7afba-e420-4d66-9646-246e304b4b86}, ! Default Interior Surface Constructions Name
  {3c99188a-5f80-46f5-940a-340304459562}, ! Default Ground Contact Surface Constructions Name
  {2ecf4f4c-85ee-4d44-969d-1cf3dc9d0651}, ! Default Exterior SubSurface Constructions Name
  {edc7805e-40b6-44a8-8a30-2abcacbc0e12}, ! Default Interior SubSurface Constructions Name
  {0b592349-15e1-4ac8-b255-6aa348bc5198}, ! Interior Partition Construction Name
  ,                                       ! Space Shading Construction Name
  ,                                       ! Building Shading Construction Name
  ;                                       ! Site Shading Construction Name

OS:DefaultSubSurfaceConstructions,
  {edc7805e-40b6-44a8-8a30-2abcacbc0e12}, ! Handle
  000_Interior_DefSubCons,                ! Name
  ,                                       ! Fixed Window Construction Name
  ,                                       ! Operable Window Construction Name
  {3387c5bb-95fd-4cec-950e-c576953c3938}, ! Door Construction Name
  {bf7a6673-5c75-47b0-9fb8-67dd3c74f3df}, ! Glass Door Construction Name
  ,                                       ! Overhead Door Construction Name
  {bf7a6673-5c75-47b0-9fb8-67dd3c74f3df}, ! Skylight Construction Name
  {3506a07b-6579-4526-86ca-84b833269727}, ! Tubular Daylight Dome Construction Name
  {3506a07b-6579-4526-86ca-84b833269727}; ! Tubular Daylight Diffuser Construction Name

OS:DefaultSubSurfaceConstructions,
  {2ecf4f4c-85ee-4d44-969d-1cf3dc9d0651}, ! Handle
  ASHRAE_189.1-2009_ClimateZone 4-5 (mdoff)_Exterior_DefSubCons, ! Name
  {7f1e6127-621d-4ecc-ab89-cbcdc1f628cc}, ! Fixed Window Construction Name
  ,                                       ! Operable Window Construction Name
  {3387c5bb-95fd-4cec-950e-c576953c3938}, ! Door Construction Name
  ,                                       ! Glass Door Construction Name
  ,                                       ! Overhead Door Construction Name
  ,                                       ! Skylight Construction Name
  ,                                       ! Tubular Daylight Dome Construction Name
  ;                                       ! Tubular Daylight Diffuser Construction Name

OS:DefaultSurfaceConstructions,
  {3c99188a-5f80-46f5-940a-340304459562}, ! Handle
  000_Ground_DefSurfCons,                 ! Name
  {bff3ab07-fe79-44c1-8705-f0604ee2dd36}, ! Floor Construction Name
  ,                                       ! Wall Construction Name
  ;                                       ! Roof Ceiling Construction Name

OS:DefaultSurfaceConstructions,
  {67c7afba-e420-4d66-9646-246e304b4b86}, ! Handle
  000_Interior_DefSurfCons,               ! Name
  ,                                       ! Floor Construction Name
  {0b592349-15e1-4ac8-b255-6aa348bc5198}, ! Wall Construction Name
  ;                                       ! Roof Ceiling Construction Name

OS:DefaultSurfaceConstructions,
  {10a56728-d349-4650-a259-a46789e73ea8}, ! Handle
  ASHRAE_189.1-2009_ClimateZone 4-5 (mdoff)_Exterior_DefSurfCons, ! Name
  {716dcae3-a9d8-4937-b9f6-015118e0598c}, ! Floor Construction Name
  {0746b5db-a240-49d4-819c-862ec8a89d9a}, ! Wall Construction Name
  {f277b585-187c-4dc5-881a-b3045a644696}; ! Roof Ceiling Construction Name

OS:Facility,
  {cf302468-3453-4b1f-a1ed-b05a0da3cd5c}; ! Handle

OS:Material:AirGap,
  {7046c4c7-d903-44e8-85a6-633f6dfd0880}, ! Handle
  000_F05 Ceiling air space resistance,   ! Name
  0.18;                                   ! Thermal Resistance

OS:Rendering:Color,
  {3ac3ab6e-838a-4987-a923-7ed16f076f1c}, ! Handle
  000_ExtSlabCarpet_4in_ClimateZone 1-8_Color, ! Name
  198.9,                                  ! Rendering Red Value
  0.0,                                    ! Rendering Green Value
  0.0;                                    ! Rendering Blue Value

OS:Rendering:Color,
  {336262c3-ed6f-4bd5-bd5b-d932449932e2}, ! Handle
  000_Exterior Door_Color,                ! Name
  124.3125,                               ! Rendering Red Value
  74.5875,                                ! Rendering Green Value
  89.505;                                 ! Rendering Blue Value

OS:Rendering:Color,
  {5258d57d-6d17-494e-9c3b-4c56919ea2f6}, ! Handle
  000_Exterior Window_Color,              ! Name
  198.9,                                  ! Rendering Red Value
  0.0,                                    ! Rendering Green Value
  59.6699999999999,                       ! Rendering Blue Value
  ;                                       ! Rendering Alpha Value

OS:Rendering:Color,
  {d215b2b0-0241-4ad0-b07c-0df46d01f486}, ! Handle
  000_Interior Ceiling_Color,             ! Name
  219.096,                                ! Rendering Red Value
  142.8,                                  ! Rendering Green Value
  255.0;                                  ! Rendering Blue Value

OS:Rendering:Color,
  {10b662a5-17eb-4067-8ab6-1c6c92619ced}, ! Handle
  000_Interior Door_Color,                ! Name
  168.606,                                ! Rendering Red Value
  255.0,                                  ! Rendering Green Value
  142.8;                                  ! Rendering Blue Value

OS:Rendering:Color,
  {994d202e-504a-4148-84f1-46b26fd74ce7}, ! Handle
  000_Interior Floor_Color,               ! Name
  255.0,                                  ! Rendering Red Value
  142.8,                                  ! Rendering Green Value
  142.8;                                  ! Rendering Blue Value

OS:Rendering:Color,
  {3345a47f-3148-4884-93eb-8d5a5a0a785d}, ! Handle
  000_Interior Partition_Color,           ! Name
  165.24,                                 ! Rendering Red Value
  142.8,                                  ! Rendering Green Value
  255.0;                                  ! Rendering Blue Value

OS:Rendering:Color,
  {a4e4bf50-8f71-4600-993d-4ea1ca2afada}, ! Handle
  000_Interior Wall_Color,                ! Name
  142.8,                                  ! Rendering Red Value
  201.144,                                ! Rendering Green Value
  255.0;                                  ! Rendering Blue Value

OS:Rendering:Color,
  {6a66ec3d-9ebd-481c-931c-fad8647d508d}, ! Handle
  000_Interior Window_Color,              ! Name
  235.926,                                ! Rendering Red Value
  255.0,                                  ! Rendering Green Value
  142.8;                                  ! Rendering Blue Value

OS:Rendering:Color,
  {ffe7c1fb-032c-4ec1-a24d-8d1e06bad54e}, ! Handle
  ASHRAE_189.1-2009_ClimateZone 4-8_MediumOffice_Color, ! Name
  120.36,                                 ! Rendering Red Value
  236.64,                                 ! Rendering Green Value
  201.756;                                ! Rendering Blue Value

OS:Rendering:Color,
  {00efa528-c739-4942-bb54-971e350d5081}, ! Handle
  ASHRAE_189.1-2009_ExtRoof_IEAD_ClimateZone 2-5_Color, ! Name
  150.1695,                               ! Rendering Red Value
  14.9175,                                ! Rendering Green Value
  183.9825,                               ! Rendering Blue Value
  ;                                       ! Rendering Alpha Value

OS:Rendering:Color,
  {6d1599e9-d10c-498e-a73e-8cbb2dcd9066}, ! Handle
  ASHRAE_189.1-2009_ExtWall_SteelFrame_ClimateZone 4-8_Color, ! Name
  21.1139999999998,                       ! Rendering Red Value
  17.2125,                                ! Rendering Green Value
  212.2875;                               ! Rendering Blue Value

OS:Rendering:Color,
  {d43e1bbd-8f3c-4474-9188-3505c2d039e8}, ! Handle
  ASHRAE_189.1-2009_ExtWindow_ClimateZone 4-5_Color, ! Name
  109.6653,                               ! Rendering Red Value
  238.935,                                ! Rendering Green Value
  56.865,                                 ! Rendering Blue Value
  ;                                       ! Rendering Alpha Value

OS:Rendering:Color,
  {f16d79c6-23ca-4509-a014-2175d9ec5914}, ! Handle
  Air_Wall_Color,                         ! Name
  255,                                    ! Rendering Red Value
  69,                                     ! Rendering Green Value
  0,                                      ! Rendering Blue Value
  ;                                       ! Rendering Alpha Value

OS:Rendering:Color,
  {dca0f93c-b0ab-49ea-a058-869b6aa0620c}, ! Handle
  Empty Space Type Color,                 ! Name
  128.0,                                  ! Rendering Red Value
  128.0,                                  ! Rendering Green Value
  128.0;                                  ! Rendering Blue Value

OS:RunPeriodControl:DaylightSavingTime,
  {693caa13-3e74-48ae-8045-a3a848c2807a}, ! Handle
  2nd Sunday in March,                    ! Start Date
  1st Sunday in November;                 ! End Date

OS:RunPeriodControl:SpecialDays,
  {01427c50-9f95-4617-88ea-a0e9186837e8}, ! Handle
  Christmas,                              ! Name
  December 25,                            ! Start Date
  1,                                      ! Duration
  Holiday;                                ! Special Day Type

OS:RunPeriodControl:SpecialDays,
  {4f7bd1ef-5d66-416c-b7cd-645da80eb8db}, ! Handle
  Columbus Day,                           ! Name
  2nd Monday in October,                  ! Start Date
  1,                                      ! Duration
  Holiday;                                ! Special Day Type

OS:RunPeriodControl:SpecialDays,
  {c89b3655-49ce-4e5d-97c9-b2095fd6db9c}, ! Handle
  Independence Day,                       ! Name
  July 4,                                 ! Start Date
  1,                                      ! Duration
  Holiday;                                ! Special Day Type

OS:RunPeriodControl:SpecialDays,
  {bc7c5297-77e3-4f10-bc89-f8f14a796e35}, ! Handle
  Labor Day,                              ! Name
  1st Monday in September,                ! Start Date
  1,                                      ! Duration
  Holiday;                                ! Special Day Type

OS:RunPeriodControl:SpecialDays,
  {d5293439-b4e0-42c4-ae8f-39daf0fa9e60}, ! Handle
  MLK Day,                                ! Name
  3rd Monday in January,                  ! Start Date
  1,                                      ! Duration
  Holiday;                                ! Special Day Type

OS:RunPeriodControl:SpecialDays,
  {5053f38e-2fe7-4c10-afbd-cc1965219b26}, ! Handle
  Memorial Day,                           ! Name
  Last Monday in May,                     ! Start Date
  1,                                      ! Duration
  Holiday;                                ! Special Day Type

OS:RunPeriodControl:SpecialDays,
  {246c2b99-5ff6-48d4-a556-71bb50fed76b}, ! Handle
  New Years Day,                          ! Name
  January 1,                              ! Start Date
  1,                                      ! Duration
  Holiday;                                ! Special Day Type

OS:RunPeriodControl:SpecialDays,
  {086bd7a3-d72e-44c0-acc9-70d041c4c2f5}, ! Handle
  Presidents Day,                         ! Name
  3rd Monday in February,                 ! Start Date
  1,                                      ! Duration
  Holiday;                                ! Special Day Type

OS:RunPeriodControl:SpecialDays,
  {675b176b-6342-4e06-9b76-f297a6b58c55}, ! Handle
  Thanksgiving,                           ! Name
  4th Thursday in November,               ! Start Date
  1,                                      ! Duration
  Holiday;                                ! Special Day Type

OS:RunPeriodControl:SpecialDays,
  {4d4d7ba3-4fd8-4f69-9194-9b7ffe61cc8d}, ! Handle
  Veterans Day,                           ! Name
  November 11,                            ! Start Date
  1,                                      ! Duration
  Holiday;                                ! Special Day Type

OS:ScheduleTypeLimits,
  {a36b9707-67e9-4ac7-87d8-bca1cdc8d977}, ! Handle
  Any Number;                             ! Name

OS:ScheduleTypeLimits,
  {d5de7a23-6ee1-4151-a263-1bfb8dd0a2ce}, ! Handle
  Control Type,                           ! Name
  0,                                      ! Lower Limit Value
  4,                                      ! Upper Limit Value
  DISCRETE;                               ! Numeric Type

OS:ScheduleTypeLimits,
  {34a5bba4-16c2-43a7-83db-1840d06ef230}, ! Handle
  Fraction,                               ! Name
  0,                                      ! Lower Limit Value
  1,                                      ! Upper Limit Value
  CONTINUOUS;                             ! Numeric Type

OS:ScheduleTypeLimits,
  {860056cb-f9ed-447b-aaaf-630c68f1cc0e}, ! Handle
  On/Off,                                 ! Name
  0,                                      ! Lower Limit Value
  1,                                      ! Upper Limit Value
  DISCRETE;                               ! Numeric Type

OS:SimulationControl,
  {657ba578-29ab-439c-87b6-218865343bf2}, ! Handle
  No,                                     ! Do Zone Sizing Calculation
  No,                                     ! Do System Sizing Calculation
  No,                                     ! Do Plant Sizing Calculation
  No,                                     ! Run Simulation for Sizing Periods
  Yes,                                    ! Run Simulation for Weather File Run Periods
  0.040000000000000001,                   ! Loads Convergence Tolerance Value
  0.40000000000000002,                    ! Temperature Convergence Tolerance Value
  FullExterior,                           ! Solar Distribution
  25;                                     ! Maximum Number of Warmup Days

OS:SpaceType,
  {47591f78-c2de-46b3-aa66-77ec4e00a99e}, ! Handle
  Empty Space Type,                       ! Name
  {8d276ca2-ac82-489c-8e07-395b89456514}, ! Default Construction Set Name
  ,                                       ! Default Schedule Set Name
  {dca0f93c-b0ab-49ea-a058-869b6aa0620c}; ! Group Rendering Name

OS:Timestep,
  {8a10f874-3682-42ca-98c2-f4b68d8deb26}, ! Handle
  4;                                      ! Number of Timesteps per Hour

OS:WindowMaterial:Gas,
  {e206938a-22d6-40d6-a854-d669000ee30e}, ! Handle
  000_Air 13mm,                           ! Name
  Air,                                    ! Gas Type
  0.012699999999999999;                   ! Thickness

OS:WindowMaterial:Glazing,
  {f1c02e84-56ed-458b-88f2-c04a48b49010}, ! Handle
  000_Clear 3mm,                          ! Name
  SpectralAverage,                        ! Optical Data Type
  ,                                       ! Window Glass Spectral Data Set Name
  0.0030000000000000001,                  ! Thickness
  0.83699999999999997,                    ! Solar Transmittance at Normal Incidence
  0.074999999999999997,                   ! Front Side Solar Reflectance at Normal Incidence
  0.074999999999999997,                   ! Back Side Solar Reflectance at Normal Incidence
  0.89800000000000002,                    ! Visible Transmittance at Normal Incidence
  0.081000000000000003,                   ! Front Side Visible Reflectance at Normal Incidence
  0.081000000000000003,                   ! Back Side Visible Reflectance at Normal Incidence
  0,                                      ! Infrared Transmittance at Normal Incidence
  0.83999999999999997,                    ! Front Side Infrared Hemispherical Emissivity
  0.83999999999999997,                    ! Back Side Infrared Hemispherical Emissivity
  0.90000000000000002,                    ! Conductivity
  ,                                       ! Dirt Correction Factor for Solar and Visible Transmittance
  ;                                       ! Solar Diffusing

OS:DesignSpecification:OutdoorAir,
  {1c61d1cd-d199-4946-9ac5-8496d110c280}, ! Handle
  MediumOffice_Outdoor_Air,               ! Name
  Sum,                                    ! Outdoor Air Method
  0.0107645200000431,                     ! Outdoor Air Flow per Person
  0.0,                                    ! Outdoor Air Flow per Floor Area
  0,                                      ! Outdoor Air Flow Rate
  0,                                      ! Outdoor Air Flow Air Changes per Hour
  ;                                       ! Outdoor Air Flow Rate Fraction Schedule Name

OS:ScheduleTypeLimits,
  {d0f0b867-4833-4c23-97b4-2d2103a11327}, ! Handle
  ActivityLevel,                          ! Name
  0,                                      ! Lower Limit Value {BasedOnField A4}
  ,                                       ! Upper Limit Value {BasedOnField A4}
  Continuous,                             ! Numeric Type
  ActivityLevel;                          ! Unit Type

OS:ScheduleTypeLimits,
  {b2323053-24fd-48bf-91c8-981699edab0b}, ! Handle
  Temperature 1,                          ! Name
  ,                                       ! Lower Limit Value {BasedOnField A4}
  ,                                       ! Upper Limit Value {BasedOnField A4}
  Continuous,                             ! Numeric Type
  Temperature;                            ! Unit Type

OS:ScheduleTypeLimits,
  {a1b286a2-734b-4de1-aca9-74651817c459}, ! Handle
  Temperature 2,                          ! Name
  ,                                       ! Lower Limit Value {BasedOnField A4}
  ,                                       ! Upper Limit Value {BasedOnField A4}
  Continuous,                             ! Numeric Type
  Temperature;                            ! Unit Type

OS:BuildingStory,
  {2544b7cf-b0fa-41c8-b240-3ee7fdccc50a}, ! Handle
  Building Story 1,                       ! Name
  0,                                      ! Nominal Z Coordinate {m}
  3.27,                                   ! Nominal Floor to Floor Height {m}
  ,                                       ! Default Construction Set Name
  ,                                       ! Default Schedule Set Name
  {8f8c6027-0d87-46d7-8a60-507ea43d66b8}; ! Group Rendering Name

OS:Space,
  {e204215f-0e84-40b5-abb3-1abfba2af1a4}, ! Handle
  Laundry1,                               ! Name
  {62537b5b-8047-42ef-a147-1648a6a93ad8}, ! Space Type Name
  ,                                       ! Default Construction Set Name
  ,                                       ! Default Schedule Set Name
  -0,                                     ! Direction of Relative North {deg}
  0,                                      ! X Origin {m}
  1.61,                                   ! Y Origin {m}
  0,                                      ! Z Origin {m}
  {2544b7cf-b0fa-41c8-b240-3ee7fdccc50a}, ! Building Story Name
  {4a78e0e8-9e19-4464-8ffe-177e94ff7aab}, ! Thermal Zone Name
  ,                                       ! Part of Total Floor Area
  ;                                       ! Design Specification Outdoor Air Object Name

OS:Surface,
  {900bba5d-7235-4b6b-8277-e843fd340355}, ! Handle
  Surface 1,                              ! Name
  Floor,                                  ! Surface Type
  ,                                       ! Construction Name
  {e204215f-0e84-40b5-abb3-1abfba2af1a4}, ! Space Name
  Outdoors,                               ! Outside Boundary Condition
  ,                                       ! Outside Boundary Condition Object
  SunExposed,                             ! Sun Exposure
  WindExposed,                            ! Wind Exposure
  ,                                       ! View Factor to Ground
  ,                                       ! Number of Vertices
  3, 0, 0,                                !- X,Y,Z Vertex 1 {m}
  3, -1.61, 0,                            !- X,Y,Z Vertex 2 {m}
  0, -1.61, 0,                            !- X,Y,Z Vertex 3 {m}
  0, 0, 0;                                !- X,Y,Z Vertex 4 {m}

OS:Surface,
  {0302d9ae-7360-4387-8436-8af3457859c8}, ! Handle
  Surface 2,                              ! Name
  Wall,                                   ! Surface Type
  ,                                       ! Construction Name
  {e204215f-0e84-40b5-abb3-1abfba2af1a4}, ! Space Name
  Surface,                                ! Outside Boundary Condition
  {987582aa-b013-4bbd-a232-b8b4f5b904de}, ! Outside Boundary Condition Object
  NoSun,                                  ! Sun Exposure
  NoWind,                                 ! Wind Exposure
  ,                                       ! View Factor to Ground
  ,                                       ! Number of Vertices
  0.992, 0, 3.27,                         !- X,Y,Z Vertex 1 {m}
  0.992, 0, 0,                            !- X,Y,Z Vertex 2 {m}
  0, 0, 0,                                !- X,Y,Z Vertex 3 {m}
  0, 0, 3.27;                             !- X,Y,Z Vertex 4 {m}

OS:Surface,
  {5f2aa2c1-96a0-406a-8406-1442ecc3ee85}, ! Handle
  Surface 3,                              ! Name
  Wall,                                   ! Surface Type
  ,                                       ! Construction Name
  {e204215f-0e84-40b5-abb3-1abfba2af1a4}, ! Space Name
  Surface,                                ! Outside Boundary Condition
  {8c1c7344-1868-4388-b0ea-35e6bf770500}, ! Outside Boundary Condition Object
  NoSun,                                  ! Sun Exposure
  NoWind,                                 ! Wind Exposure
  ,                                       ! View Factor to Ground
  ,                                       ! Number of Vertices
  3, 0, 3.27,                             !- X,Y,Z Vertex 1 {m}
  3, 0, 0,                                !- X,Y,Z Vertex 2 {m}
  0.992, 0, 0,                            !- X,Y,Z Vertex 3 {m}
  0.992, 0, 3.27;                         !- X,Y,Z Vertex 4 {m}

OS:Surface,
  {4558e20d-5f83-4632-aca9-252fc4c653ce}, ! Handle
  Surface 4,                              ! Name
  Wall,                                   ! Surface Type
  ,                                       ! Construction Name
  {e204215f-0e84-40b5-abb3-1abfba2af1a4}, ! Space Name
  Surface,                                ! Outside Boundary Condition
  {82251d34-3680-4241-b41f-281a53d7b399}, ! Outside Boundary Condition Object
  NoSun,                                  ! Sun Exposure
  NoWind,                                 ! Wind Exposure
  ,                                       ! View Factor to Ground
  ,                                       ! Number of Vertices
  3, -1.61, 3.27,                         !- X,Y,Z Vertex 1 {m}
  3, -1.61, 0,                            !- X,Y,Z Vertex 2 {m}
  3, 0, 0,                                !- X,Y,Z Vertex 3 {m}
  3, 0, 3.27;                             !- X,Y,Z Vertex 4 {m}

OS:Surface,
  {fb48f679-66f3-468c-be05-cf398124da4c}, ! Handle
  Surface 5,                              ! Name
  Wall,                                   ! Surface Type
  ,                                       ! Construction Name
  {e204215f-0e84-40b5-abb3-1abfba2af1a4}, ! Space Name
  Outdoors,                               ! Outside Boundary Condition
  ,                                       ! Outside Boundary Condition Object
  SunExposed,                             ! Sun Exposure
  WindExposed,                            ! Wind Exposure
  ,                                       ! View Factor to Ground
  ,                                       ! Number of Vertices
  0, -1.61, 3.27,                         !- X,Y,Z Vertex 1 {m}
  0, -1.61, 0,                            !- X,Y,Z Vertex 2 {m}
  3, -1.61, 0,                            !- X,Y,Z Vertex 3 {m}
  3, -1.61, 3.27;                         !- X,Y,Z Vertex 4 {m}

OS:Surface,
  {c402e184-c4ae-4836-a799-266cb227266f}, ! Handle
  Surface 6,                              ! Name
  Wall,                                   ! Surface Type
  ,                                       ! Construction Name
  {e204215f-0e84-40b5-abb3-1abfba2af1a4}, ! Space Name
  Outdoors,                               ! Outside Boundary Condition
  ,                                       ! Outside Boundary Condition Object
  SunExposed,                             ! Sun Exposure
  WindExposed,                            ! Wind Exposure
  ,                                       ! View Factor to Ground
  ,                                       ! Number of Vertices
  0, 0, 3.27,                             !- X,Y,Z Vertex 1 {m}
  0, 0, 0,                                !- X,Y,Z Vertex 2 {m}
  0, -1.61, 0,                            !- X,Y,Z Vertex 3 {m}
  0, -1.61, 3.27;                         !- X,Y,Z Vertex 4 {m}

OS:Surface,
  {8613f2ee-ea9b-434c-82e6-3653c6f93c57}, ! Handle
  Surface 7,                              ! Name
  RoofCeiling,                            ! Surface Type
  {84d87ac7-2bf0-48e8-8897-586a49b9f664}, ! Construction Name
  {e204215f-0e84-40b5-abb3-1abfba2af1a4}, ! Space Name
  Surface,                                ! Outside Boundary Condition
  {497d9c2f-7067-478c-a7b2-d7cc144c2235}, ! Outside Boundary Condition Object
  NoSun,                                  ! Sun Exposure
  NoWind,                                 ! Wind Exposure
  ,                                       ! View Factor to Ground
  ,                                       ! Number of Vertices
  3, -1.61, 3.27,                         !- X,Y,Z Vertex 1 {m}
  3, 0, 3.27,                             !- X,Y,Z Vertex 2 {m}
  0, 0, 3.27,                             !- X,Y,Z Vertex 3 {m}
  0, -1.61, 3.27;                         !- X,Y,Z Vertex 4 {m}

OS:Space,
  {5d1e2150-09a3-4346-b54f-cebb9b3f5ff4}, ! Handle
  Washroom,                               ! Name
  {d221ba2b-55f8-4617-9610-c5b7d1c05117}, ! Space Type Name
  ,                                       ! Default Construction Set Name
  ,                                       ! Default Schedule Set Name
  -0,                                     ! Direction of Relative North {deg}
  3,                                      ! X Origin {m}
  0,                                      ! Y Origin {m}
  0,                                      ! Z Origin {m}
  {2544b7cf-b0fa-41c8-b240-3ee7fdccc50a}, ! Building Story Name
  {ef7d5082-c7e0-432e-950a-541f1c6270e6}, ! Thermal Zone Name
  ,                                       ! Part of Total Floor Area
  ;                                       ! Design Specification Outdoor Air Object Name

OS:Surface,
  {d0239839-bed4-4d83-ba74-1ff950f35b10}, ! Handle
  Surface 8,                              ! Name
  Floor,                                  ! Surface Type
  ,                                       ! Construction Name
  {5d1e2150-09a3-4346-b54f-cebb9b3f5ff4}, ! Space Name
  Outdoors,                               ! Outside Boundary Condition
  ,                                       ! Outside Boundary Condition Object
  SunExposed,                             ! Sun Exposure
  WindExposed,                            ! Wind Exposure
  ,                                       ! View Factor to Ground
  ,                                       ! Number of Vertices
  5.8, 3.06, 0,                           !- X,Y,Z Vertex 1 {m}
  5.8, 0, 0,                              !- X,Y,Z Vertex 2 {m}
  0, 0, 0,                                !- X,Y,Z Vertex 3 {m}
  0, 3.06, 0;                             !- X,Y,Z Vertex 4 {m}

OS:Surface,
  {82251d34-3680-4241-b41f-281a53d7b399}, ! Handle
  Surface 9,                              ! Name
  Wall,                                   ! Surface Type
  ,                                       ! Construction Name
  {5d1e2150-09a3-4346-b54f-cebb9b3f5ff4}, ! Space Name
  Surface,                                ! Outside Boundary Condition
  {4558e20d-5f83-4632-aca9-252fc4c653ce}, ! Outside Boundary Condition Object
  NoSun,                                  ! Sun Exposure
  NoWind,                                 ! Wind Exposure
  ,                                       ! View Factor to Ground
  ,                                       ! Number of Vertices
  0, 1.61, 3.27,                          !- X,Y,Z Vertex 1 {m}
  0, 1.61, 0,                             !- X,Y,Z Vertex 2 {m}
  0, 0, 0,                                !- X,Y,Z Vertex 3 {m}
  0, 0, 3.27;                             !- X,Y,Z Vertex 4 {m}

OS:Surface,
  {aabc9629-c687-4feb-a929-96ee3a3c0212}, ! Handle
  Surface 10,                             ! Name
  Wall,                                   ! Surface Type
  ,                                       ! Construction Name
  {5d1e2150-09a3-4346-b54f-cebb9b3f5ff4}, ! Space Name
  Surface,                                ! Outside Boundary Condition