
OS:Version,
  {4fd29f05-6b2f-46f8-8c0c-210777e107e6}, !- Handle
  1.2.3;                                  !- Version Identifier

OS:Schedule:Constant,
  {c7b0b342-9afa-44c0-8378-1712b4eb0a8d}, !- Handle
  Always On Discrete,                     !- Name
  {085c82ca-3bdc-4103-bc10-c8da21f2ee34}, !- Schedule Type Limits Name
  1;                                      !- Value

OS:ScheduleTypeLimits,
  {085c82ca-3bdc-4103-bc10-c8da21f2ee34}, !- Handle
  Always On Discrete Limits,              !- Name
  0,                                      !- Lower Limit Value {BasedOnField A4}
  1,                                      !- Upper Limit Value {BasedOnField A4}
  Discrete,                               !- Numeric Type
  Availability;                           !- Unit Type

OS:DefaultSubSurfaceConstructions,
  {edc7805e-40b6-44a8-8a30-2abcacbc0e12}, ! Handle
  000_Interior_DefSubCons,                ! Name
  ,                                       ! Fixed Window Construction Name
  ,                                       ! Operable Window Construction Name
  ,                                       ! Door Construction Name
  ,                                       ! Glass Door Construction Name
  ,                                       ! Overhead Door Construction Name
  ,                                       ! Skylight Construction Name
  ,                                       ! Tubular Daylight Dome Construction Name
  ;                                       ! Tubular Daylight Diffuser Construction Name

OS:DefaultSubSurfaceConstructions,
  {2ecf4f4c-85ee-4d44-969d-1cf3dc9d0651}, ! Handle
  ASHRAE_189.1-2009_ClimateZone 4-5 (mdoff)_Exterior_DefSubCons, ! Name
  ,                                       ! Fixed Window Construction Name
  ,                                       ! Operable Window Construction Name
  ,                                       ! Door Construction Name
  ,                                       ! Glass Door Construction Name
  ,                                       ! Overhead Door Construction Name
  ,                                       ! Skylight Construction Name
  ,                                       ! Tubular Daylight Dome Construction Name
  ;                                       ! Tubular Daylight Diffuser Construction Name

OS:DefaultSurfaceConstructions,
  {3c99188a-5f80-46f5-940a-340304459562}, ! Handle
  000_Ground_DefSurfCons,                 ! Name
  ,                                       ! Floor Construction Name
  ,                                       ! Wall Construction Name
  ;                                       ! Roof Ceiling Construction Name

OS:DefaultSurfaceConstructions,
  {67c7afba-e420-4d66-9646-246e304b4b86}, ! Handle
  000_Interior_DefSurfCons,               ! Name
  ,                                       ! Floor Construction Name
  ,                                       ! Wall Construction Name
  ;                                       ! Roof Ceiling Construction Name

OS:DefaultSurfaceConstructions,
  {10a56728-d349-4650-a259-a46789e73ea8}, ! Handle
  ASHRAE_189.1-2009_ClimateZone 4-5 (mdoff)_Exterior_DefSurfCons, ! Name
  ,                                       ! Floor Construction Name
  ,                                       ! Wall Construction Name
  ;                                       ! Roof Ceiling Construction Name

OS:Facility,
  {cf302468-3453-4b1f-a1ed-b05a0da3cd5c}; ! Handle

OS:Material:AirGap,
  {7046c4c7-d903-44e8-85a6-633f6dfd0880}, ! Handle
  000_F05 Ceiling air space resistance,   ! Name
  0.17999999999999999;                    ! Thermal Resistance

OS:Rendering:Color,
  {3ac3ab6e-838a-4987-a923-7ed16f076f1c}, ! Handle
  000_ExtSlabCarpet_4in_ClimateZone 1-8_Color, ! Name
  198.9,                                  ! Rendering Red Value
  0.0,                                    ! Rendering Green Value
  0.0;                                    ! Rendering Blue Value

OS:Rendering:Color,
  {336262c3-ed6f-4bd5-bd5b-d932449932e2}, ! Handle
  000_Exterior Door_Color,                ! Name
  124.3125,                               ! Rendering Red Value
  74.5875,                                ! Rendering Green Value
  89.505;                                 ! Rendering Blue Value

OS:Rendering:Color,
  {5258d57d-6d17-494e-9c3b-4c56919ea2f6}, ! Handle
  000_Exterior Window_Color,              ! Name
  198.9,                                  ! Rendering Red Value
  0.0,                                    ! Rendering Green Value
  59.6699999999999,                       ! Rendering Blue Value
  ;                                       ! Rendering Alpha Value

OS:Rendering:Color,
  {d215b2b0-0241-4ad0-b07c-0df46d01f486}, ! Handle
  000_Interior Ceiling_Color,             ! Name
  219.096,                                ! Rendering Red Value
  142.8,                                  ! Rendering Green Value
  255.0;                                  ! Rendering Blue Value

OS:Rendering:Color,
  {10b662a5-17eb-4067-8ab6-1c6c92619ced}, ! Handle
  000_Interior Door_Color,                ! Name
  168.606,                                ! Rendering Red Value
  255.0,                                  ! Rendering Green Value
  142.8;                                  ! Rendering Blue Value

OS:Rendering:Color,
  {994d202e-504a-4148-84f1-46b26fd74ce7}, ! Handle
  000_Interior Floor_Color,               ! Name
  255.0,                                  ! Rendering Red Value
  142.8,                                  ! Rendering Green Value
  142.8;                                  ! Rendering Blue Value

OS:Rendering:Color,
  {3345a47f-3148-4884-93eb-8d5a5a0a785d}, ! Handle
  000_Interior Partition_Color,           ! Name
  165.24,                                 ! Rendering Red Value
  142.8,                                  ! Rendering Green Value
  255.0;                                  ! Rendering Blue Value

OS:Rendering:Color,
  {a4e4bf50-8f71-4600-993d-4ea1ca2afada}, ! Handle
  000_Interior Wall_Color,                ! Name
  142.8,                                  ! Rendering Red Value
  201.144,                                ! Rendering Green Value
  255.0;                                  ! Rendering Blue Value

OS:Rendering:Color,
  {6a66ec3d-9ebd-481c-931c-fad8647d508d}, ! Handle
  000_Interior Window_Color,              ! Name
  235.926,                                ! Rendering Red Value
  255.0,                                  ! Rendering Green Value
  142.8;                                  ! Rendering Blue Value

OS:Rendering:Color,
  {ffe7c1fb-032c-4ec1-a24d-8d1e06bad54e}, ! Handle
  ASHRAE_189.1-2009_ClimateZone 4-8_MediumOffice_Color, ! Name
  120.36,                                 ! Rendering Red Value
  236.64,                                 ! Rendering Green Value
  201.756;                                ! Rendering Blue Value

OS:Rendering:Color,
  {00efa528-c739-4942-bb54-971e350d5081}, ! Handle
  ASHRAE_189.1-2009_ExtRoof_IEAD_ClimateZone 2-5_Color, ! Name
  150.1695,                               ! Rendering Red Value
  14.9175,                                ! Rendering Green Value
  183.9825,                               ! Rendering Blue Value
  ;                                       ! Rendering Alpha Value

OS:Rendering:Color,
  {6d1599e9-d10c-498e-a73e-8cbb2dcd9066}, ! Handle
  ASHRAE_189.1-2009_ExtWall_SteelFrame_ClimateZone 4-8_Color, ! Name
  21.1139999999998,                       ! Rendering Red Value
  17.2125,                                ! Rendering Green Value
  212.2875;                               ! Rendering Blue Value

OS:Rendering:Color,
  {d43e1bbd-8f3c-4474-9188-3505c2d039e8}, ! Handle
  ASHRAE_189.1-2009_ExtWindow_ClimateZone 4-5_Color, ! Name
  109.6653,                               ! Rendering Red Value
  238.935,                                ! Rendering Green Value
  56.865,                                 ! Rendering Blue Value
  ;                                       ! Rendering Alpha Value

OS:Rendering:Color,
  {f16d79c6-23ca-4509-a014-2175d9ec5914}, ! Handle
  Air_Wall_Color,                         ! Name
  255,                                    ! Rendering Red Value
  69,                                     ! Rendering Green Value
  0,                                      ! Rendering Blue Value
  ;                                       ! Rendering Alpha Value

OS:Rendering:Color,
  {dca0f93c-b0ab-49ea-a058-869b6aa0620c}, ! Handle
  Empty Space Type Color,                 ! Name
  128.0,                                  ! Rendering Red Value
  128.0,                                  ! Rendering Green Value
  128.0;                                  ! Rendering Blue Value

OS:RunPeriodControl:DaylightSavingTime,
  {693caa13-3e74-48ae-8045-a3a848c2807a}, ! Handle
  2nd Sunday in March,                    ! Start Date
  1st Sunday in November;                 ! End Date

OS:RunPeriodControl:SpecialDays,
  {01427c50-9f95-4617-88ea-a0e9186837e8}, ! Handle
  Christmas,                              ! Name
  December 25,                            ! Start Date
  1,                                      ! Duration
  Holiday;                                ! Special Day Type

OS:RunPeriodControl:SpecialDays,
  {4f7bd1ef-5d66-416c-b7cd-645da80eb8db}, ! Handle
  Columbus Day,                           ! Name
  2nd Monday in October,                  ! Start Date
  1,                                      ! Duration
  Holiday;                                ! Special Day Type

OS:RunPeriodControl:SpecialDays,
  {c89b3655-49ce-4e5d-97c9-b2095fd6db9c}, ! Handle
  Independence Day,                       ! Name
  July 4,                                 ! Start Date
  1,                                      ! Duration
  Holiday;                                ! Special Day Type

OS:RunPeriodControl:SpecialDays,
  {bc7c5297-77e3-4f10-bc89-f8f14a796e35}, ! Handle
  Labor Day,                              ! Name
  1st Monday in September,                ! Start Date
  1,                                      ! Duration
  Holiday;                                ! Special Day Type

OS:RunPeriodControl:SpecialDays,
  {d5293439-b4e0-42c4-ae8f-39daf0fa9e60}, ! Handle
  MLK Day,                                ! Name
  3rd Monday in January,                  ! Start Date
  1,                                      ! Duration
  Holiday;                                ! Special Day Type

OS:RunPeriodControl:SpecialDays,
  {5053f38e-2fe7-4c10-afbd-cc1965219b26}, ! Handle
  Memorial Day,                           ! Name
  Last Monday in May,                     ! Start Date
  1,                                      ! Duration
  Holiday;                                ! Special Day Type

OS:RunPeriodControl:SpecialDays,
  {246c2b99-5ff6-48d4-a556-71bb50fed76b}, ! Handle
  New Years Day,                          ! Name
  January 1,                              ! Start Date
  1,                                      ! Duration
  Holiday;                                ! Special Day Type

OS:RunPeriodControl:SpecialDays,
  {086bd7a3-d72e-44c0-acc9-70d041c4c2f5}, ! Handle
  Presidents Day,                         ! Name
  3rd Monday in February,                 ! Start Date
  1,                                      ! Duration
  Holiday;                                ! Special Day Type

OS:RunPeriodControl:SpecialDays,
  {675b176b-6342-4e06-9b76-f297a6b58c55}, ! Handle
  Thanksgiving,                           ! Name
  4th Thursday in November,               ! Start Date
  1,                                      ! Duration
  Holiday;                                ! Special Day Type

OS:RunPeriodControl:SpecialDays,
  {4d4d7ba3-4fd8-4f69-9194-9b7ffe61cc8d}, ! Handle
  Veterans Day,                           ! Name
  November 11,                            ! Start Date
  1,                                      ! Duration
  Holiday;                                ! Special Day Type

OS:ScheduleTypeLimits,
  {a36b9707-67e9-4ac7-87d8-bca1cdc8d977}, ! Handle
  Any Number;                             ! Name

OS:ScheduleTypeLimits,
  {d5de7a23-6ee1-4151-a263-1bfb8dd0a2ce}, ! Handle
  Control Type,                           ! Name
  0,                                      ! Lower Limit Value
  4,                                      ! Upper Limit Value
  DISCRETE;                               ! Numeric Type

OS:ScheduleTypeLimits,
  {34a5bba4-16c2-43a7-83db-1840d06ef230}, ! Handle
  Fraction,                               ! Name
  0,                                      ! Lower Limit Value
  1,                                      ! Upper Limit Value
  CONTINUOUS;                             ! Numeric Type

OS:ScheduleTypeLimits,
  {860056cb-f9ed-447b-aaaf-630c68f1cc0e}, ! Handle
  On/Off,                                 ! Name
  0,                                      ! Lower Limit Value
  1,                                      ! Upper Limit Value
  DISCRETE;                               ! Numeric Type

OS:SimulationControl,
  {657ba578-29ab-439c-87b6-218865343bf2}, ! Handle
  No,                                     ! Do Zone Sizing Calculation
  No,                                     ! Do System Sizing Calculation
  No,                                     ! Do Plant Sizing Calculation
  No,                                     ! Run Simulation for Sizing Periods
  Yes,                                    ! Run Simulation for Weather File Run Periods
  0.040000000000000001,                   ! Loads Convergence Tolerance Value
  0.40000000000000002,                    ! Temperature Convergence Tolerance Value
  FullExterior,                           ! Solar Distribution
  25;                                     ! Maximum Number of Warmup Days

OS:Timestep,
  {8a10f874-3682-42ca-98c2-f4b68d8deb26}, ! Handle
  4;                                      ! Number of Timesteps per Hour

OS:DesignSpecification:OutdoorAir,
  {1c61d1cd-d199-4946-9ac5-8496d110c280}, ! Handle
  MediumOffice_Outdoor_Air,               ! Name
  Sum,                                    ! Outdoor Air Method
  0.0107645200000431,                     ! Outdoor Air Flow per Person
  0.0,                                    ! Outdoor Air Flow per Floor Area
  0,                                      ! Outdoor Air Flow Rate
  0,                                      ! Outdoor Air Flow Air Changes per Hour
  ;                                       ! Outdoor Air Flow Rate Fraction Schedule Name

OS:ScheduleTypeLimits,
  {d0f0b867-4833-4c23-97b4-2d2103a11327}, ! Handle
  ActivityLevel,                          ! Name
  0,                                      ! Lower Limit Value {BasedOnField A4}
  ,                                       ! Upper Limit Value {BasedOnField A4}
  Continuous,                             ! Numeric Type
  ActivityLevel;                          ! Unit Type

OS:ScheduleTypeLimits,
  {b2323053-24fd-48bf-91c8-981699edab0b}, ! Handle
  Temperature 1,                          ! Name
  ,                                       ! Lower Limit Value {BasedOnField A4}
  ,                                       ! Upper Limit Value {BasedOnField A4}
  Continuous,                             ! Numeric Type
  Temperature;                            ! Unit Type

OS:ScheduleTypeLimits,
  {a1b286a2-734b-4de1-aca9-74651817c459}, ! Handle
  Temperature 2,                          ! Name
  ,                                       ! Lower Limit Value {BasedOnField A4}
  ,                                       ! Upper Limit Value {BasedOnField A4}
  Continuous,                             ! Numeric Type
  Temperature;                            ! Unit Type

OS:BuildingStory,
  {bc9cac73-b1dc-44df-a3ed-78b59aa20967}, ! Handle
  Building Story 1,                       ! Name
  0,                                      ! Nominal Z Coordinate {m}
  7.87908,                                ! Nominal Floor to Floor Height {m}
  ,                                       ! Default Construction Set Name
  ,                                       ! Default Schedule Set Name
  {fb78519c-f403-496c-a28c-8278b2afb11d}; ! Group Rendering Name

OS:Space,
  {ccd34cf7-969f-46bf-bb48-0f664fab8ffe}, ! Handle
  Warehouse,                              ! Name
  {c2e24a01-a739-4edf-b523-6206bcdb29e2}, ! Space Type Name
  ,                                       ! Default Construction Set Name
  ,                                       ! Default Schedule Set Name
  -0,                                     ! Direction of Relative North {deg}
  98.94,                                  ! X Origin {m}
  0,                                      ! Y Origin {m}
  0,                                      ! Z Origin {m}
  {bc9cac73-b1dc-44df-a3ed-78b59aa20967}, ! Building Story Name
  {31448467-ce41-4f01-8bef-998ebf0eb998}, ! Thermal Zone Name
  ,                                       ! Part of Total Floor Area
  ;                                       ! Design Specification Outdoor Air Object Name

OS:Surface,
  {f5256f4e-b533-4f89-a6f0-52fdc4ad1584}, ! Handle
  Surface 1,                              ! Name
  Floor,                                  ! Surface Type
  ,                                       ! Construction Name
  {ccd34cf7-969f-46bf-bb48-0f664fab8ffe}, ! Space Name
  Ground,                                 ! Outside Boundary Condition
  ,                                       ! Outside Boundary Condition Object
  NoSun,                                  ! Sun Exposure
  NoWind,                                 ! Wind Exposure
  ,                                       ! View Factor to Ground
  ,                                       ! Number of Vertices
  0, 36.84, 0,                            !- X,Y,Z Vertex 1 {m}
  0, 0, 0,                                !- X,Y,Z Vertex 2 {m}
  -92.98, 0, 0,                           !- X,Y,Z Vertex 3 {m}
  -92.98, 22, 0,                          !- X,Y,Z Vertex 4 {m}
  -98.94, 22, 0,                          !- X,Y,Z Vertex 5 {m}
  -98.94, 36.84, 0;                       !- X,Y,Z Vertex 6 {m}

OS:Surface,
  {dd55aa8a-f71b-4b93-afe0-1ae7b5846a2d}, ! Handle
  Surface 2,                              ! Name
  Wall,                                   ! Surface Type
  ,                                       ! Construction Name
  {ccd34cf7-969f-46bf-bb48-0f664fab8ffe}, ! Space Name
  Outdoors,                               ! Outside Boundary Condition
  ,                                       ! Outside Boundary Condition Object
  SunExposed,                             ! Sun Exposure
  WindExposed,                            ! Wind Exposure
  ,                                       ! View Factor to Ground
  ,                                       ! Number of Vertices
  -92.98, 0, 6.348984,                    !- X,Y,Z Vertex 1 {m}
  -92.98, 0, 0,                           !- X,Y,Z Vertex 2 {m}
  0, 0, 0,                                !- X,Y,Z Vertex 3 {m}
  0, 0, 6.348984;                         !- X,Y,Z Vertex 4 {m}

OS:Surface,
  {56f98f2f-fa29-4d40-8629-2dcc9bbc1b9d}, ! Handle
  Surface 3,                              ! Name
  Wall,                                   ! Surface Type
  ,                                       ! Construction Name
  {ccd34cf7-969f-46bf-bb48-0f664fab8ffe}, ! Space Name
  Surface,                                ! Outside Boundary Condition
  {bd4d22ef-bc17-408b-a4bc-4cf7f024aed7}, ! Outside Boundary Condition Object
  NoSun,                                  ! Sun Exposure
  NoWind,                                 ! Wind Exposure
  ,                                       ! View Factor to Ground
  ,                                       ! Number of Vertices
  -92.98, 6.11, 2.999232,                 !- X,Y,Z Vertex 1 {m}
  -92.98, 6.11, 0,                        !- X,Y,Z Vertex 2 {m}
  -92.98, 0, 0,                           !- X,Y,Z Vertex 3 {m}
  -92.98, 1.44382283906452e-015, 2.999232; !- X,Y,Z Vertex 4 {m}

OS:Surface,
  {120c5eb8-39f9-498d-85ba-392d667e0a77}, ! Handle
  Surface 5,                              ! Name
  Wall,                                   ! Surface Type
  ,                                       ! Construction Name
  {ccd34cf7-969f-46bf-bb48-0f664fab8ffe}, ! Space Name
  Outdoors,                               ! Outside Boundary Condition
  ,                                       ! Outside Boundary Condition Object
  SunExposed,                             ! Sun Exposure
  WindExposed,                            ! Wind Exposure
  ,                                       ! View Factor to Ground
  ,                                       ! Number of Vertices
  -98.94, 22, 7.56487960014397,           !- X,Y,Z Vertex 1 {m}
  -98.94, 36.84, 6.26243995381337,        !- X,Y,Z Vertex 2 {m}
  -98.94, 36.84, 0,                       !- X,Y,Z Vertex 3 {m}
  -98.94, 22, 0;                          !- X,Y,Z Vertex 4 {m}

OS:Surface,
  {0a179b0d-6811-4550-ad2a-de51bc4e7b71}, ! Handle
  Surface 6,                              ! Name
  Wall,                                   ! Surface Type
  ,                                       ! Construction Name
  {ccd34cf7-969f-46bf-bb48-0f664fab8ffe}, ! Space Name
  Outdoors,                               ! Outside Boundary Condition
  ,                                       ! Outside Boundary Condition Object
  SunExposed,                             ! Sun Exposure
  WindExposed,                            ! Wind Exposure
  ,                                       ! View Factor to Ground
  ,                                       ! Number of Vertices
  0, 36.84, 6.26243995381337,             !- X,Y,Z Vertex 1 {m}
  0, 36.84, 0,                            !- X,Y,Z Vertex 2 {m}
  -98.94, 36.84, 0,                       !- X,Y,Z Vertex 3 {m}
  -98.94, 36.84, 6.26243995381337;        !- X,Y,Z Vertex 4 {m}

OS:Space,
  {414aca6e-3c36-4d45-a332-90e974e74a69}, ! Handle
  Warehouse_Stg,                          ! Name
  {c2e24a01-a739-4edf-b523-6206bcdb29e2}, ! Space Type Name
  ,                                       ! Default Construction Set Name
  ,                                       ! Default Schedule Set Name
  -0,                                     ! Direction of Relative North {deg}
  55.43,                                  ! X Origin {m}
  7.47126740341668,                       ! Y Origin {m}
  0,                                      ! Z Origin {m}
  {bc9cac73-b1dc-44df-a3ed-78b59aa20967}, ! Building Story Name
  {01db5361-823c-498b-b39f-01071935539b}, ! Thermal Zone Name
  ,                                       ! Part of Total Floor Area
  ;                                       ! Design Specification Outdoor Air Object Name

OS:Surface,
  {fc20ebad-c6a9-4e22-9b01-fc5f061d1e6f}, ! Handle
  Surface 9,                              ! Name
  Floor,                                  ! Surface Type
  ,                                       ! Construction Name
  {414aca6e-3c36-4d45-a332-90e974e74a69}, ! Space Name
  Ground,                                 ! Outside Boundary Condition
  ,                                       ! Outside Boundary Condition Object
  NoSun,                                  ! Sun Exposure
  NoWind,                                 ! Wind Exposure
  ,                                       ! View Factor to Ground
  ,                                       ! Number of Vertices
  -0.000418499999995674, 2.91, 0,         !- X,Y,Z Vertex 1 {m}
  -0.000418499999995674, 0, 0,            !- X,Y,Z Vertex 2 {m}
  -5.96, 0, 0,                            !- X,Y,Z Vertex 3 {m}
  -5.96, 2.91, 0;                         !- X,Y,Z Vertex 4 {m}

OS:Surface,
  {8f4fcea1-2e65-49bc-9a55-a5f29ebd3e43}, ! Handle
  Surface 10,                             ! Name
  Wall,                                   ! Surface Type
  ,                                       ! Construction Name
  {414aca6e-3c36-4d45-a332-90e974e74a69}, ! Space Name
  Outdoors,                               ! Outside Boundary Condition
  ,                                       ! Outside Boundary Condition Object
  SunExposed,                             ! Sun Exposure
  WindExposed,                            ! Wind Exposure
  ,                                       ! View Factor to Ground
  ,                                       ! Number of Vertices
  -5.96, 0, 6.96960052382727,             !- X,Y,Z Vertex 1 {m}
  -5.96, 0, 0,                            !- X,Y,Z Vertex 2 {m}
  -0.000418499999995674, 0, 0,            !- X,Y,Z Vertex 3 {m}
  -0.000418499999995674, 0, 6.96960052382727; !- X,Y,Z Vertex 4 {m}

OS:Surface,
  {8ef1be48-952e-4460-866e-2ed81dd33104}, ! Handle
  Surface 11,                             ! Name
  Wall,                                   ! Surface Type
  ,                                       ! Construction Name
  {414aca6e-3c36-4d45-a332-90e974e74a69}, ! Space Name
  Outdoors,                               ! Outside Boundary Condition
  ,                                       ! Outside Boundary Condition Object
  SunExposed,                             ! Sun Exposure
  WindExposed,                            ! Wind Exposure
  ,                                       ! View Factor to Ground
  ,                                       ! Number of Vertices
  -5.96, 2.91, 7.21132578767091,          !- X,Y,Z Vertex 1 {m}
  -5.96, 2.91, 0,                         !- X,Y,Z Vertex 2 {m}
  -5.96, 0, 0,                            !- X,Y,Z Vertex 3 {m}
  -5.96, 0, 6.96960052382727;             !- X,Y,Z Vertex 4 {m}

OS:Surface,
  {0bdac8cc-3fb3-4082-bb58-075afbbd4abb}, ! Handle
  Surface 12,                             ! Name
  Wall,                                   ! Surface Type
  ,                                       ! Construction Name
  {414aca6e-3c36-4d45-a332-90e974e74a69}, ! Space Name
  Outdoors,                               ! Outside Boundary Condition
  ,                                       ! Outside Boundary Condition Object
  SunExposed,                             ! Sun Exposure
  WindExposed,                            ! Wind Exposure
  ,                                       ! View Factor to Ground
  ,                                       ! Number of Vertices
  -0.000418499999995674, 2.91, 7.21132578767091, !- X,Y,Z Vertex 1 {m}
  -0.000418499999995674, 2.91, 0,         !- X,Y,Z Vertex 2 {m}
  -5.96, 2.91, 0,                         !- X,Y,Z Vertex 3 {m}
  -5.96, 2.91, 7.21132578767091;          !- X,Y,Z Vertex 4 {m}

OS:Space,
  {efb194ac-5aff-4d23-9ac9-abf1a26b5683}, ! Handle
  Warehouse_off,                          ! Name
  {ab646388-0a45-4eab-8fb4-b8faabe54257}, ! Space Type Name
  ,                                       ! Default Construction Set Name
  ,                                       ! Default Schedule Set Name
  -0,                                     ! Direction of Relative North {deg}
  57.22,                                  ! X Origin {m}
  23.4900112350645,                       ! Y Origin {m}
  0,                                      ! Z Origin {m}
  {bc9cac73-b1dc-44df-a3ed-78b59aa20967}, ! Building Story Name
  {1686ca84-1f43-4b13-b469-ecedef91f61d}, ! Thermal Zone Name
  ,                                       ! Part of Total Floor Area
  ;                                       ! Design Specification Outdoor Air Object Name

OS:Surface,
  {d0cf5a16-b77c-4ec6-9a29-3e6434c197e9}, ! Handle
  Surface 15,                             ! Name
  Floor,                                  ! Surface Type
  ,                                       ! Construction Name
  {efb194ac-5aff-4d23-9ac9-abf1a26b5683}, ! Space Name
  Ground,                                 ! Outside Boundary Condition
  ,                                       ! Outside Boundary Condition Object
  NoSun,                                  ! Sun Exposure
  NoWind,                                 ! Wind Exposure
  ,                                       ! View Factor to Ground
  ,                                       ! Number of Vertices
  0, 4.14, 0,                             !- X,Y,Z Vertex 1 {m}
  0, 0, 0,                                !- X,Y,Z Vertex 2 {m}
  -7.75, 0, 0,                            !- X,Y,Z Vertex 3 {m}
  -7.75, 4.14, 0;                         !- X,Y,Z Vertex 4 {m}

OS:Surface,
  {cb145ebd-0627-4f96-bbef-8cb9c8db2343}, ! Handle
  Surface 16,                             ! Name
  Wall,                                   ! Surface Type
  ,                                       ! Construction Name
  {efb194ac-5aff-4d23-9ac9-abf1a26b5683}, ! Space Name
  Outdoors,                               ! Outside Boundary Condition
  ,                                       ! Outside Boundary Condition Object
  SunExposed,                             ! Sun Exposure
  WindExposed,                            ! Wind Exposure
  ,                                       ! View Factor to Ground
  ,                                       ! Number of Vertices
  -7.75, 0, 7.43410805661122,             !- X,Y,Z Vertex 1 {m}
  -7.75, 0, 0,                            !- X,Y,Z Vertex 2 {m}
  0, 0, 0,                                !- X,Y,Z Vertex 3 {m}
  0, 0, 7.43410805661122;                 !- X,Y,Z Vertex 4 {m}

OS:Surface,
  {6db69b21-ea2a-4bf8-93cd-ace2891dc62a}, ! Handle
  Surface 17,                             ! Name
  Wall,                                   ! Surface Type
  ,                                       ! Construction Name
  {efb194ac-5aff-4d23-9ac9-abf1a26b5683}, ! Space Name
  Outdoors,                               ! Outside Boundary Condition
  ,                                       ! Outside Boundary Condition Object
  SunExposed,                             ! Sun Exposure
  WindExposed,                            ! Wind Exposure
  ,                                       ! View Factor to Ground
  ,                                       ! Number of Vertices
  -7.75, 0, 7.43410805661122,             !- X,Y,Z Vertex 1 {m}
  -7.75, 4.14, 7.07075899085592,          !- X,Y,Z Vertex 2 {m}
  -7.75, 4.14, 0,                         !- X,Y,Z Vertex 3 {m}
  -7.75, 0, 0;                            !- X,Y,Z Vertex 4 {m}
