
OS:Version,
  {b21569ef-eb4e-4144-afbc-a1b2e4ad764e}, !- Handle
  1.3.0;                                  !- Version Identifier

OS:Site,
  {0f47c310-aa5a-40d4-85d5-78f02ad3b06b}, !- Handle
  Houston Bush Intercontinental_TX_USA Design_Conditions, !- Name
  30,                                     !- Latitude {deg}
  -95.37,                                 !- Longitude {deg}
  -6,                                     !- Time Zone {hr}
  29,                                     !- Elevation {m}
  Suburbs;                                !- Terrain

OS:SimulationControl,
  {fbdee9b0-fbb2-42f4-b2cc-e3dff6037115}, !- Handle
  Yes,                                    !- Do Zone Sizing Calculation
  Yes,                                    !- Do System Sizing Calculation
  Yes,                                    !- Do Plant Sizing Calculation
  Yes,                                    !- Run Simulation for Sizing Periods
  Yes,                                    !- Run Simulation for Weather File Run Periods
  0.04,                                   !- Loads Convergence Tolerance Value
  0.4,                                    !- Temperature Convergence Tolerance Value {deltaC}
  FullExterior,                           !- Solar Distribution
  25,                                     !- Maximum Number of Warmup Days
  6;                                      !- Minimum Number of Warmup Days

OS:SpaceInfiltration:DesignFlowRate,
  {97d45214-accd-48af-a707-ed30289210aa}, !- Handle
  GuestRoom409_412_Infiltration,          !- Name
  {d1b7c1c3-e831-4ee2-a3a3-08e8f756705a}, !- Space or SpaceType Name
  ,                                       !- Schedule Name
  Flow/ExteriorArea,                      !- Design Flow Rate Calculation Method
  ,                                       !- Design Flow Rate {m3/s}
  ,                                       !- Flow per Space Floor Area {m3/s-m2}
  0.00014224,                             !- Flow per Exterior Surface Area {m3/s-m2}
  ,                                       !- Air Changes per Hour {1/hr}
  0,                                      !- Constant Term Coefficient
  0,                                      !- Temperature Term Coefficient
  0.224,                                  !- Velocity Term Coefficient
  0;                                      !- Velocity Squared Term Coefficient

OS:ThermalZone,
  {79a2ed20-90c7-4ebe-945c-7346379becd2}, !- Handle
  GuestRoom409_412 Thermal Zone,          !- Name
  1,                                      !- Multiplier
  ,                                       !- Ceiling Height {m}
  ,                                       !- Volume {m3}
  ,                                       !- Floor Area {m2}
  ,                                       !- Zone Inside Convection Algorithm
  ,                                       !- Zone Outside Convection Algorithm
  ,                                       !- Zone Conditioning Equipment List Name
  {2fa18915-adc0-4b6e-abbc-124950bd42eb}, !- Zone Air Inlet Port List
  {5fd03976-1457-4e2a-9c78-171afe4b10ea}, !- Zone Air Exhaust Port List
  {2f4a6a5f-b177-49d1-8a98-d3e3b60fb8cf}, !- Zone Air Node Name
  ,                                       !- Zone Return Air Node Name
  ,                                       !- Primary Daylighting Control Name
  ,                                       !- Fraction of Zone Controlled by Primary Daylighting Control
  ,                                       !- Secondary Daylighting Control Name
  ,                                       !- Fraction of Zone Controlled by Secondary Daylighting Control
  ,                                       !- Illuminance Map Name
  {63a64085-8cec-4516-a4a2-99ad51953675}, !- Group Rendering Name
  {84b6f541-c370-4e02-8650-c7d12ce8f875}, !- Thermostat Name
  No;                                     !- Use Ideal Air Loads

OS:Node,
  {3c04617b-5c4f-4739-9c7a-e76071950b07}, !- Handle
  {74187dd4-8cee-43d7-8451-80cf9ef878c8}, !- Name
  {2f4a6a5f-b177-49d1-8a98-d3e3b60fb8cf}, !- Inlet Port
  ;                                       !- Outlet Port

OS:Connection,
  {2f4a6a5f-b177-49d1-8a98-d3e3b60fb8cf}, !- Handle
  {d838dab5-438d-4e2b-8014-3333a33db843}, !- Name
  {79a2ed20-90c7-4ebe-945c-7346379becd2}, !- Source Object
  11,                                     !- Outlet Port
  {3c04617b-5c4f-4739-9c7a-e76071950b07}, !- Target Object
  2;                                      !- Inlet Port

OS:PortList,
  {2fa18915-adc0-4b6e-abbc-124950bd42eb}, !- Handle
  {94ef85a4-c7fc-43c7-aacb-8204735fa26d}, !- Name
  {79a2ed20-90c7-4ebe-945c-7346379becd2}; !- HVAC Component

OS:PortList,
  {5fd03976-1457-4e2a-9c78-171afe4b10ea}, !- Handle
  {25f2758c-c1b1-4915-95f6-ebfbc601fba8}, !- Name
  {79a2ed20-90c7-4ebe-945c-7346379becd2}; !- HVAC Component

OS:Sizing:Zone,
  {daac84db-89b3-46c4-b9a2-a46fb1ecb3b6}, !- Handle
  {79a2ed20-90c7-4ebe-945c-7346379becd2}, !- Zone or ZoneList Name
  14,                                     !- Zone Cooling Design Supply Air Temperature {C}
  40,                                     !- Zone Heating Design Supply Air Temperature {C}
  0.0085,                                 !- Zone Cooling Design Supply Air Humidity Ratio {kg-H2O/kg-air}
  0.008,                                  !- Zone Heating Design Supply Air Humidity Ratio {kg-H2O/kg-air}
  ,                                       !- Zone Heating Sizing Factor
  ,                                       !- Zone Cooling Sizing Factor
  DesignDay,                              !- Cooling Design Air Flow Method
  ,                                       !- Cooling Design Air Flow Rate {m3/s}
  ,                                       !- Cooling Minimum Air Flow per Zone Floor Area {m3/s-m2}
  ,                                       !- Cooling Minimum Air Flow {m3/s}
  ,                                       !- Cooling Minimum Air Flow Fraction
  DesignDay,                              !- Heating Design Air Flow Method
  ,                                       !- Heating Design Air Flow Rate {m3/s}
  ,                                       !- Heating Maximum Air Flow per Zone Floor Area {m3/s-m2}
  ,                                       !- Heating Maximum Air Flow {m3/s}
  ,                                       !- Heating Maximum Air Flow Fraction
  ,                                       !- Design Zone Air Distribution Effectiveness in Cooling Mode
  ;                                       !- Design Zone Air Distribution Effectiveness in Heating Mode

OS:ZoneHVAC:EquipmentList,
  {7aecf754-a063-4177-93f9-15ac3b248955}, !- Handle
  {3680cd08-a82c-478a-87e1-a9db22594dc3}, !- Name
  {79a2ed20-90c7-4ebe-945c-7346379becd2}; !- Thermal Zone

OS:Space,
  {d1b7c1c3-e831-4ee2-a3a3-08e8f756705a}, !- Handle
  GuestRoom409_412,                       !- Name
  ,                                       !- Space Type Name
  ,                                       !- Default Construction Set Name
  ,                                       !- Default Schedule Set Name
  0,                                      !- Direction of Relative North {deg}
  0,                                      !- X Origin {m}
  0,                                      !- Y Origin {m}
  0,                                      !- Z Origin {m}
  ,                                       !- Building Story Name
  {79a2ed20-90c7-4ebe-945c-7346379becd2}; !- Thermal Zone Name

OS:ThermostatSetpoint:DualSetpoint,
  {84b6f541-c370-4e02-8650-c7d12ce8f875}, !- Handle
  {d8400e3b-4edd-4895-9ff7-17e301b73d6f}, !- Name
  {e7627107-4e7f-4632-abe2-165f757c10ea}, !- Heating Setpoint Temperature Schedule Name
  {080e62ff-87bb-4290-8908-64cfd91b6135}; !- Cooling Setpoint Temperature Schedule Name

OS:Schedule:Compact,
  {e7627107-4e7f-4632-abe2-165f757c10ea}, !- Handle
  Adva_OccGuestRoom_HtgSP_Sch,            !- Name
  {9d6c7586-68f9-4681-ae55-7f447102abae}, !- Schedule Type Limits Name
  Through: 12/31,                         !- Field 1
  For: SummerDesignDay WinterDesignDay,   !- Field 2
  Until: 24:00,                           !- Field 3
  21.111,                                 !- Field 4
  For: AllOtherDays,                      !- Field 5
  Until: 9:00,                            !- Field 6
  21.111,                                 !- Field 7
  Until: 16:00,                           !- Field 8
  18.889,                                 !- Field 9
  Until: 24:00,                           !- Field 10
  21.111;                                 !- Field 11

OS:ScheduleTypeLimits,
  {9d6c7586-68f9-4681-ae55-7f447102abae}, !- Handle
  Temperature,                            !- Name
  -60,                                    !- Lower Limit Value {BasedOnField A4}
  200,                                    !- Upper Limit Value {BasedOnField A4}
  Continuous,                             !- Numeric Type
  Temperature;                            !- Unit Type

OS:Schedule:Compact,
  {080e62ff-87bb-4290-8908-64cfd91b6135}, !- Handle
  Adva_OccGuestRoom_ClgSP_Sch,            !- Name
  {9d6c7586-68f9-4681-ae55-7f447102abae}, !- Schedule Type Limits Name
  Through: 12/31,                         !- Field 1
  For: SummerDesignDay WinterDesignDay,   !- Field 2
  Until: 24:00,                           !- Field 3
  21.111,                                 !- Field 4
  For: AllOtherDays,                      !- Field 5
  Until: 9:00,                            !- Field 6
  21.111,                                 !- Field 7
  Until: 16:00,                           !- Field 8
  23.333,                                 !- Field 9
  Until: 24:00,                           !- Field 10
  21.111;                                 !- Field 11

OS:Schedule:Compact,
  {c0ce8ef7-ae7c-4da6-a96c-347adf953edb}, !- Handle
  GuestRoom_Infil_Sch,                    !- Name
  {c5a19c6e-5a4d-40b3-b881-e9f76ea19875}, !- Schedule Type Limits Name
  Through: 12/31,                         !- Field 1
  For: Weekdays Saturday Sunday Holidays, !- Field 2
  Until: 24:00,                           !- Field 3
  0.25,                                   !- Field 4
  For: WinterDesignDay,                   !- Field 5
  Until: 24:00,                           !- Field 6
  0.0,                                    !- Field 7
  For: SummerDesignDay CustomDay1 CustomDay2, !- Field 8
  Until: 24:00,                           !- Field 9
  1.0;                                    !- Field 10

OS:ScheduleTypeLimits,
  {c5a19c6e-5a4d-40b3-b881-e9f76ea19875}, !- Handle
  Fraction,                               !- Name
  0,                                      !- Lower Limit Value {BasedOnField A4}
  ,                                       !- Upper Limit Value {BasedOnField A4}
  Continuous;                             !- Numeric Type

OS:Surface,
  {78d3ba66-87a2-4f99-9649-3c06386fc345}, !- Handle
  R_GuestRoom413_1_0_0,                   !- Name
  RoofCeiling,                            !- Surface Type
  {717e2ae6-c452-4cf7-9f9a-37cfbf369810}, !- Construction Name
  {e62fa6be-6441-455c-8319-088101603fea}, !- Space Name
  Outdoors,                               !- Outside Boundary Condition
  ,                                       !- Outside Boundary Condition Object
  SunExposed,                             !- Sun Exposure
  WindExposed,                            !- Wind Exposure
  ,                                       !- View Factor to Ground
  ,                                       !- Number of Vertices
  52.4742844242, 0.0488452197, 11.5824,   !- X,Y,Z Vertex 1 {m}
  52.4742844242, 8.2790292198, 11.5824,   !- X,Y,Z Vertex 2 {m}
  48.5118844242, 8.2790292198, 11.5824,   !- X,Y,Z Vertex 3 {m}
  48.5118844242, 0.0488452197, 11.5824;   !- X,Y,Z Vertex 4 {m}

OS:Construction,
  {717e2ae6-c452-4cf7-9f9a-37cfbf369810}, !- Handle
  res_roof,                               !- Name
  {6f8954a2-e083-48d4-a25e-24f46e3aedcc}, !- Surface Rendering Name
  {e60d47b3-e8d6-4fcd-a387-0d7ad908c548}, !- Layer 1
  {afdeb8e4-4ac4-4740-893e-bbef56f5c733}, !- Layer 2
  {4d753d84-3d53-451b-8b28-2c865b800fe4}; !- Layer 3

OS:Material,
  {e60d47b3-e8d6-4fcd-a387-0d7ad908c548}, !- Handle
  F13 Built-up roofing,                   !- Name
  Rough,                                  !- Roughness
  0.0095,                                 !- Thickness {m}
  0.16,                                   !- Conductivity {W/m-K}
  1120,                                   !- Density {kg/m3}
  1460,                                   !- Specific Heat {J/kg-K}
  0.75,                                   !- Thermal Absorptance
  0.45;                                   !- Solar Absorptance

OS:Material:NoMass,
  {afdeb8e4-4ac4-4740-893e-bbef56f5c733}, !- Handle
  Res_Roof_Insulation,                    !- Name
  MediumSmooth,                           !- Roughness
  3.47220376108688,                       !- Thermal Resistance {m2-K/W}
  0.9,                                    !- Thermal Absorptance
  0.7,                                    !- Solar Absorptance
  0.7;                                    !- Visible Absorptance

OS:Material,
  {4d753d84-3d53-451b-8b28-2c865b800fe4}, !- Handle
  F08 Metal surface,                      !- Name
  Smooth,                                 !- Roughness
  0.0008,                                 !- Thickness {m}
  45.28,                                  !- Conductivity {W/m-K}
  7824,                                   !- Density {kg/m3}
  500;                                    !- Specific Heat {J/kg-K}

OS:ThermalZone,
  {d0ab5685-26f9-491d-ad41-4b05c0603126}, !- Handle
  GuestRoom413 Thermal Zone,              !- Name
  1,                                      !- Multiplier
  ,                                       !- Ceiling Height {m}
  ,                                       !- Volume {m3}
  ,                                       !- Floor Area {m2}
  ,                                       !- Zone Inside Convection Algorithm
  ,                                       !- Zone Outside Convection Algorithm
  ,                                       !- Zone Conditioning Equipment List Name
  {edf9198f-f4c3-4a50-b824-0948f0bb28f7}, !- Zone Air Inlet Port List
  {5b4fb09a-f65f-40b7-ab30-d303a75a4869}, !- Zone Air Exhaust Port List
  {0b618837-d88a-4813-a035-f2b81024de2a}, !- Zone Air Node Name
  ,                                       !- Zone Return Air Node Name
  ,                                       !- Primary Daylighting Control Name
  ,                                       !- Fraction of Zone Controlled by Primary Daylighting Control
  ,                                       !- Secondary Daylighting Control Name
  ,                                       !- Fraction of Zone Controlled by Secondary Daylighting Control
  ,                                       !- Illuminance Map Name
  {ddca547f-68c1-4e0a-95b1-5ac2fc9002e6}, !- Group Rendering Name
  {dd0c8e6c-cfba-42b1-93f4-3487587ee455}, !- Thermostat Name
  No;                                     !- Use Ideal Air Loads

OS:Node,
  {303e1941-562a-4206-9b0f-ca0be778c0cb}, !- Handle
  {5687d75b-81e2-4c3f-b7b2-224f10a62e41}, !- Name
  {0b618837-d88a-4813-a035-f2b81024de2a}, !- Inlet Port
  ;                                       !- Outlet Port

OS:Connection,
  {0b618837-d88a-4813-a035-f2b81024de2a}, !- Handle
  {02ce218e-d8ef-4a45-a625-de89c8fa9fad}, !- Name
  {d0ab5685-26f9-491d-ad41-4b05c0603126}, !- Source Object
  11,                                     !- Outlet Port
  {303e1941-562a-4206-9b0f-ca0be778c0cb}, !- Target Object
  2;                                      !- Inlet Port

OS:PortList,
  {edf9198f-f4c3-4a50-b824-0948f0bb28f7}, !- Handle
  {93e9def5-50f9-45e2-b09c-f6f10916e179}, !- Name
  {d0ab5685-26f9-491d-ad41-4b05c0603126}; !- HVAC Component

OS:PortList,
  {5b4fb09a-f65f-40b7-ab30-d303a75a4869}, !- Handle
  {cd6ae533-9eac-4e4e-9f81-d9f3af09291b}, !- Name
  {d0ab5685-26f9-491d-ad41-4b05c0603126}; !- HVAC Component

OS:Sizing:Zone,
  {25272ac8-ca58-4c84-aba9-1e1540793533}, !- Handle
  {d0ab5685-26f9-491d-ad41-4b05c0603126}, !- Zone or ZoneList Name
  14,                                     !- Zone Cooling Design Supply Air Temperature {C}
  40,                                     !- Zone Heating Design Supply Air Temperature {C}
  0.0085,                                 !- Zone Cooling Design Supply Air Humidity Ratio {kg-H2O/kg-air}
  0.008,                                  !- Zone Heating Design Supply Air Humidity Ratio {kg-H2O/kg-air}
  ,                                       !- Zone Heating Sizing Factor
  ,                                       !- Zone Cooling Sizing Factor
  DesignDay,                              !- Cooling Design Air Flow Method
  ,                                       !- Cooling Design Air Flow Rate {m3/s}
  ,                                       !- Cooling Minimum Air Flow per Zone Floor Area {m3/s-m2}
  ,                                       !- Cooling Minimum Air Flow {m3/s}
  ,                                       !- Cooling Minimum Air Flow Fraction
  DesignDay,                              !- Heating Design Air Flow Method
  ,                                       !- Heating Design Air Flow Rate {m3/s}
  ,                                       !- Heating Maximum Air Flow per Zone Floor Area {m3/s-m2}
  ,                                       !- Heating Maximum Air Flow {m3/s}
  ,                                       !- Heating Maximum Air Flow Fraction
  ,                                       !- Design Zone Air Distribution Effectiveness in Cooling Mode
  ;                                       !- Design Zone Air Distribution Effectiveness in Heating Mode

OS:ZoneHVAC:EquipmentList,
  {a44cdc96-eb36-49ec-8aab-e51701fe337f}, !- Handle
  {af31e5aa-0042-4086-930b-995339ef3813}, !- Name
  {d0ab5685-26f9-491d-ad41-4b05c0603126}; !- Thermal Zone

OS:Space,
  {e62fa6be-6441-455c-8319-088101603fea}, !- Handle
  GuestRoom413,                           !- Name
  ,                                       !- Space Type Name
  ,                                       !- Default Construction Set Name
  ,                                       !- Default Schedule Set Name
  0,                                      !- Direction of Relative North {deg}
  0,                                      !- X Origin {m}
  0,                                      !- Y Origin {m}
  0,                                      !- Z Origin {m}
  ,                                       !- Building Story Name
  {d0ab5685-26f9-491d-ad41-4b05c0603126}; !- Thermal Zone Name

OS:ThermostatSetpoint:DualSetpoint,
  {dd0c8e6c-cfba-42b1-93f4-3487587ee455}, !- Handle
  {7c5c9cb1-3b37-4ba1-ab2c-8064b87e63d8}, !- Name
  {cebea8d8-1c3e-4a78-b86f-d7ba9736c387}, !- Heating Setpoint Temperature Schedule Name
  {e02d255a-321a-4030-954d-383f270525c4}; !- Cooling Setpoint Temperature Schedule Name

OS:Schedule:Compact,
  {cebea8d8-1c3e-4a78-b86f-d7ba9736c387}, !- Handle
  VacGuestRoom_HtgSP_Sch,                 !- Name
  {9d6c7586-68f9-4681-ae55-7f447102abae}, !- Schedule Type Limits Name
  Through: 12/31,                         !- Field 1
  For: AllDays,                           !- Field 2
  Until: 24:00,                           !- Field 3
  18.889;                                 !- Field 4

OS:Schedule:Compact,
  {e02d255a-321a-4030-954d-383f270525c4}, !- Handle
  VacGuestRoom_ClgSP_Sch,                 !- Name
  {9d6c7586-68f9-4681-ae55-7f447102abae}, !- Schedule Type Limits Name
  Through: 12/31,                         !- Field 1
  For: AllDays,                           !- Field 2
  Until: 24:00,                           !- Field 3
  23.333;                                 !- Field 4

OS:DesignSpecification:OutdoorAir,
  {53e6e44f-302b-40bb-84a0-a887598dd0df}, !- Handle
  SZ DSOA FrontStairsFlr1,                !- Name
  ,                                       !- Outdoor Air Method
  ,                                       !- Outdoor Air Flow per Person {m3/s-person}
  0.000304682,                            !- Outdoor Air Flow per Floor Area {m3/s-m2}
  ,                                       !- Outdoor Air Flow Rate {m3/s}
  ,                                       !- Outdoor Air Flow Air Changes per Hour {1/hr}
  ;                                       !- Outdoor Air Flow Rate Fraction Schedule Name

OS:WindowMaterial:Glazing,
  {5f3b2cab-d6a8-4c20-9252-c5ef7f75a4c8}, !- Handle
  CLEAR 3MM,                              !- Name
  SpectralAverage,                        !- Optical Data Type
  ,                                       !- Window Glass Spectral Data Set Name
  0.003,                                  !- Thickness {m}
  0.837,                                  !- Solar Transmittance at Normal Incidence
  0.075,                                  !- Front Side Solar Reflectance at Normal Incidence
  0.075,                                  !- Back Side Solar Reflectance at Normal Incidence
  0.898,                                  !- Visible Transmittance at Normal Incidence
  0.081,                                  !- Front Side Visible Reflectance at Normal Incidence
  0.081,                                  !- Back Side Visible Reflectance at Normal Incidence
  0,                                      !- Infrared Transmittance at Normal Incidence
  0.84,                                   !- Front Side Infrared Hemispherical Emissivity
  0.84,                                   !- Back Side Infrared Hemispherical Emissivity
  0.9;                                    !- Conductivity {W/m-K}

OS:People:Definition,
  {90b36b7c-2bcd-4693-94d4-50873eae3819}, !- Handle
  GuestRoom314_People Definition,         !- Name
  People,                                 !- Number of People Calculation Method
  1.5,                                    !- Number of People {people}
  ,                                       !- People per Space Floor Area {person/m2}
  ,                                       !- Space Floor Area per Person {m2/person}
  0.3,                                    !- Fraction Radiant
  ,                                       !- Sensible Heat Fraction
  ,                                       !- Carbon Dioxide Generation Rate {m3/s-W}
  No,                                     !- Enable ASHRAE 55 Comfort Warnings
  ZoneAveraged;                           !- Mean Radiant Temperature Calculation Type

OS:People,
  {79ed368c-e754-4c87-a20e-986652bed574}, !- Handle
  GuestRoom314_People,                    !- Name
  {90b36b7c-2bcd-4693-94d4-50873eae3819}, !- People Definition Name
  {7d3cdab0-7833-42f1-8b92-8d47d6343f01}, !- Space or SpaceType Name
  ,                                       !- Number of People Schedule Name
  {6372e203-5805-4f57-8168-604b0aee00f2}; !- Activity Level Schedule Name

OS:ThermalZone,
  {f14c866a-70a1-4140-b92e-5857b16fb810}, !- Handle
  GuestRoom314 Thermal Zone,              !- Name
  1,                                      !- Multiplier
  ,                                       !- Ceiling Height {m}
  ,                                       !- Volume {m3}
  ,                                       !- Floor Area {m2}
  ,                                       !- Zone Inside Convection Algorithm
  ,                                       !- Zone Outside Convection Algorithm
  ,                                       !- Zone Conditioning Equipment List Name
  {ea9751f1-b446-4cd5-9178-4f029c6a8370}, !- Zone Air Inlet Port List
  {d102d0d0-a57e-4201-9bf9-f08d750b1bf2}, !- Zone Air Exhaust Port List
  {f23ec524-b2e9-4db7-b1f9-4f932688fdef}, !- Zone Air Node Name
  ,                                       !- Zone Return Air Node Name
  ,                                       !- Primary Daylighting Control Name
  ,                                       !- Fraction of Zone Controlled by Primary Daylighting Control
  ,                                       !- Secondary Daylighting Control Name
  ,                                       !- Fraction of Zone Controlled by Secondary Daylighting Control
  ,                                       !- Illuminance Map Name
  {61891d5b-11a7-4039-9d35-8936d5ac11f1}, !- Group Rendering Name
  {84b6f541-c370-4e02-8650-c7d12ce8f875}, !- Thermostat Name
  No;                                     !- Use Ideal Air Loads

OS:Node,
  {c9cfb39d-774b-41a9-b53a-7676b0c532ad}, !- Handle
  {fdaf3d38-6e39-44cc-b835-f3f0e510e6ec}, !- Name
  {f23ec524-b2e9-4db7-b1f9-4f932688fdef}, !- Inlet Port
  ;                                       !- Outlet Port

OS:Connection,
  {f23ec524-b2e9-4db7-b1f9-4f932688fdef}, !- Handle
  {c804cf17-c6b2-4b20-b95c-7e2bb05e00a2}, !- Name
  {f14c866a-70a1-4140-b92e-5857b16fb810}, !- Source Object
  11,                                     !- Outlet Port
  {c9cfb39d-774b-41a9-b53a-7676b0c532ad}, !- Target Object
  2;                                      !- Inlet Port

OS:PortList,
  {ea9751f1-b446-4cd5-9178-4f029c6a8370}, !- Handle
  {0e511491-5144-4149-8a99-bb75cc5fad8c}, !- Name
  {f14c866a-70a1-4140-b92e-5857b16fb810}; !- HVAC Component

OS:PortList,
  {d102d0d0-a57e-4201-9bf9-f08d750b1bf2}, !- Handle
  {5a31a36c-d29c-46f3-b12a-2958c12acb61}, !- Name
  {f14c866a-70a1-4140-b92e-5857b16fb810}; !- HVAC Component

OS:Sizing:Zone,
  {50040dd7-55d7-49e6-9be7-815ea737061b}, !- Handle
  {f14c866a-70a1-4140-b92e-5857b16fb810}, !- Zone or ZoneList Name
  14,                                     !- Zone Cooling Design Supply Air Temperature {C}
  40,                                     !- Zone Heating Design Supply Air Temperature {C}
  0.0085,                                 !- Zone Cooling Design Supply Air Humidity Ratio {kg-H2O/kg-air}
  0.008,                                  !- Zone Heating Design Supply Air Humidity Ratio {kg-H2O/kg-air}
  ,                                       !- Zone Heating Sizing Factor
  ,                                       !- Zone Cooling Sizing Factor
  DesignDay,                              !- Cooling Design Air Flow Method
  ,                                       !- Cooling Design Air Flow Rate {m3/s}
  ,                                       !- Cooling Minimum Air Flow per Zone Floor Area {m3/s-m2}
  ,                                       !- Cooling Minimum Air Flow {m3/s}
  ,                                       !- Cooling Minimum Air Flow Fraction
  DesignDay,                              !- Heating Design Air Flow Method
  ,                                       !- Heating Design Air Flow Rate {m3/s}
  ,                                       !- Heating Maximum Air Flow per Zone Floor Area {m3/s-m2}
  ,                                       !- Heating Maximum Air Flow {m3/s}
  ,                                       !- Heating Maximum Air Flow Fraction
  ,                                       !- Design Zone Air Distribution Effectiveness in Cooling Mode
  ;                                       !- Design Zone Air Distribution Effectiveness in Heating Mode

OS:ZoneHVAC:EquipmentList,
  {6b09912f-49c6-48a4-bdf3-5a0e6bee225e}, !- Handle
  {c25d8900-7444-4305-a9d1-647c8dfde440}, !- Name
  {f14c866a-70a1-4140-b92e-5857b16fb810}; !- Thermal Zone

OS:Space,
  {7d3cdab0-7833-42f1-8b92-8d47d6343f01}, !- Handle
  GuestRoom314,                           !- Name
  ,                                       !- Space Type Name
  ,                                       !- Default Construction Set Name
  ,                                       !- Default Schedule Set Name
  0,                                      !- Direction of Relative North {deg}
  0,                                      !- X Origin {m}
  0,                                      !- Y Origin {m}
  0,                                      !- Z Origin {m}
  ,                                       !- Building Story Name
  {f14c866a-70a1-4140-b92e-5857b16fb810}; !- Thermal Zone Name

OS:Schedule:Compact,
  {ef5a0e6f-8382-49e4-9ec1-656abb3dc48a}, !- Handle
  GuestRoom_Occ_Sch,                      !- Name
  {c5a19c6e-5a4d-40b3-b881-e9f76ea19875}, !- Schedule Type Limits Name
  Through: 12/31,                         !- Field 1
  For: Weekdays,                          !- Field 2
  Until: 06:00,                           !- Field 3
  1.0,                                    !- Field 4
  Until: 07:00,                           !- Field 5
  0.77,                                   !- Field 6
  Until: 09:00,                           !- Field 7
  0.43,                                   !- Field 8
  Until: 15:00,                           !- Field 9
  0.2,                                    !- Field 10
  Until: 16:00,                           !- Field 11
  0.31,                                   !- Field 12
  Until: 19:00,                           !- Field 13
  0.54,                                   !- Field 14
  Until: 21:00,                           !- Field 15
  0.77,                                   !- Field 16
  Until: 22:00,                           !- Field 17
  0.89,                                   !- Field 18
  Until: 24:00,                           !- Field 19
  1.0,                                    !- Field 20
  For: Saturday Sunday Holidays,          !- Field 21
  Until: 06:00,                           !- Field 22
  1.0,                                    !- Field 23
  Until: 07:00,                           !- Field 24
  0.77,                                   !- Field 25
  Until: 09:00,                           !- Field 26
  0.53,                                   !- Field 27
  Until: 17:00,                           !- Field 28
  0.3,                                    !- Field 29
  Until: 18:00,                           !- Field 30
  0.53,                                   !- Field 31
  Until: 19:00,                           !- Field 32
  0.54,                                   !- Field 33
  Until: 21:00,                           !- Field 34
  0.65,                                   !- Field 35
  Until: 24:00,                           !- Field 36
  0.77,                                   !- Field 37
  For: WinterDesignDay,                   !- Field 38
  Until: 24:00,                           !- Field 39