
OS:Version,
  {78036b8e-6bd0-41b3-840f-4ce5acc790df}, !- Handle
  1.5.0;                                  !- Version Identifier

OS:Site,
  {e3a6b036-609a-46c6-b2fe-ae55ac3dd830}, !- Handle
  USA TX-HOUSTON,                         !- Name
  29.97,                                  !- Latitude {deg}
  -95.37,                                 !- Longitude {deg}
  -6,                                     !- Time Zone {hr}
  33,                                     !- Elevation {m}
  City;                                   !- Terrain

OS:SimulationControl,
  {ad7e6437-ab8b-40d8-90e2-aea33d393e70}, !- Handle
  Yes,                                    !- Do Zone Sizing Calculation
  Yes,                                    !- Do System Sizing Calculation
  Yes,                                    !- Do Plant Sizing Calculation
  No,                                     !- Run Simulation for Sizing Periods
  Yes,                                    !- Run Simulation for Weather File Run Periods
  0.04,                                   !- Loads Convergence Tolerance Value
  0.2,                                    !- Temperature Convergence Tolerance Value {deltaC}
  FullInteriorAndExterior,                !- Solar Distribution
  25,                                     !- Maximum Number of Warmup Days
  6;                                      !- Minimum Number of Warmup Days

OS:Surface,
  {7fccb4af-31e6-47ff-9383-1ed36eb8a9d8}, !- Handle
  Core_ZN_wall_west,                      !- Name
  Wall,                                   !- Surface Type
  ,                                       !- Construction Name
  {79f4515d-165a-428c-a5c6-e53662b98f53}, !- Space Name
  Surface,                                !- Outside Boundary Condition
  {d5d7a696-ad09-4a22-bcad-c5492af569da}, !- Outside Boundary Condition Object
  NoSun,                                  !- Sun Exposure
  NoWind,                                 !- Wind Exposure
  ,                                       !- View Factor to Ground
  ,                                       !- Number of Vertices
  5, 13.46, 3.05,                         !- X,Y,Z Vertex 1 {m}
  5, 13.46, 0,                            !- X,Y,Z Vertex 2 {m}
  5, 5, 0,                                !- X,Y,Z Vertex 3 {m}
  5, 5, 3.05;                             !- X,Y,Z Vertex 4 {m}

OS:Connection,
  {c7303a22-7933-41eb-ab77-2a17227ff315}, !- Handle
  {78ed0e42-8260-43d5-8754-d489e7ec86ad}, !- Name
  ,                                       !- Source Object
  11,                                     !- Outlet Port
  ,                                       !- Target Object
  2;                                      !- Inlet Port

OS:Space,
  {79f4515d-165a-428c-a5c6-e53662b98f53}, !- Handle
  Core_ZN,                                !- Name
  ,                                       !- Space Type Name
  ,                                       !- Default Construction Set Name
  ,                                       !- Default Schedule Set Name
  0,                                      !- Direction of Relative North {deg}
  0,                                      !- X Origin {m}
  0,                                      !- Y Origin {m}
  0,                                      !- Z Origin {m}
  ,                                       !- Building Story Name
  ,                                       !- Thermal Zone Name
  Yes;                                    !- Part of Total Floor Area

OS:Schedule:Compact,
  {6dadc13a-b750-40ae-a262-e1ed11afd063}, !- Handle
  HTGSETP_SCH,                            !- Name
  {9bcd0599-906a-423d-9869-f6b99c772e34}, !- Schedule Type Limits Name
  Through: 12/31,                         !- Field 1
  For: Weekdays,                          !- Field 2
  Until: 06:00,                           !- Field 3
  15.6,                                   !- Field 4
  Until: 22:00,                           !- Field 5
  21.0,                                   !- Field 6
  Until: 24:00,                           !- Field 7
  15.6,                                   !- Field 8
  For: Saturday,                          !- Field 9
  Until: 06:00,                           !- Field 10
  15.6,                                   !- Field 11
  Until: 18:00,                           !- Field 12
  21.0,                                   !- Field 13
  Until: 24:00,                           !- Field 14
  15.6,                                   !- Field 15
  For: WinterDesignDay,                   !- Field 16
  Until: 24:00,                           !- Field 17
  21.0,                                   !- Field 18
  For: AllOtherDays,                      !- Field 19
  Until: 24:00,                           !- Field 20
  15.6;                                   !- Field 21

OS:ScheduleTypeLimits,
  {9bcd0599-906a-423d-9869-f6b99c772e34}, !- Handle
  Temperature,                            !- Name
  -60,                                    !- Lower Limit Value {BasedOnField A4}
  200,                                    !- Upper Limit Value {BasedOnField A4}
  CONTINUOUS,                             !- Numeric Type
  Temperature;                            !- Unit Type

OS:Schedule:Compact,
  {9734da20-d082-40ea-96ba-3cd008a0391d}, !- Handle
  CLGSETP_SCH,                            !- Name
  {9bcd0599-906a-423d-9869-f6b99c772e34}, !- Schedule Type Limits Name
  Through: 12/31,                         !- Field 1
  For: Weekdays SummerDesignDay,          !- Field 2
  Until: 06:00,                           !- Field 3
  26.7,                                   !- Field 4
  Until: 22:00,                           !- Field 5
  24.0,                                   !- Field 6
  Until: 24:00,                           !- Field 7
  26.7,                                   !- Field 8
  For: Saturday,                          !- Field 9
  Until: 06:00,                           !- Field 10
  26.7,                                   !- Field 11
  Until: 18:00,                           !- Field 12
  24.0,                                   !- Field 13
  Until: 24:00,                           !- Field 14
  26.7,                                   !- Field 15
  For: AllOtherDays,                      !- Field 16
  Until: 24:00,                           !- Field 17
  26.7;                                   !- Field 18

OS:Schedule:Compact,
  {47ed650e-3723-4ac8-8301-656fb7e2b0b8}, !- Handle
  Water Equipment Sensible fract sched,   !- Name
  {1f2c65b1-5216-4527-a781-748a0aafb7f6}, !- Schedule Type Limits Name
  Through: 12/31,                         !- Field 1
  For: AllDays,                           !- Field 2
  Until: 24:00,                           !- Field 3
  0.2;                                    !- Field 4

OS:ScheduleTypeLimits,
  {1f2c65b1-5216-4527-a781-748a0aafb7f6}, !- Handle
  Fraction,                               !- Name
  0,                                      !- Lower Limit Value {BasedOnField A4}
  1,                                      !- Upper Limit Value {BasedOnField A4}
  CONTINUOUS;                             !- Numeric Type

OS:InternalMass:Definition,
  {a8e7d16a-ab12-4af1-9e5d-32ae655f1191}, !- Handle
  Perimeter_ZN_2 Internal Mass Definition, !- Name
  ,                                       !- Construction Name
  SurfaceArea,                            !- Design Level Calculation Method
  134.6,                                  !- Surface Area {m2}
  ,                                       !- Surface Area per Space Floor Area {dimensionless}
  ;                                       !- Surface Area per Person {m2/person}

OS:InternalMass,
  {f1f00342-a253-4ff2-ad95-fb4d46e0aa21}, !- Handle
  Perimeter_ZN_2 Internal Mass,           !- Name
  {a8e7d16a-ab12-4af1-9e5d-32ae655f1191}, !- Internal Mass Definition Name
  {72633814-e8c1-4918-b2fb-36627af5d5cb}; !- Space or SpaceType Name

OS:Connection,
  {875e1eb7-c42c-4e2e-8f17-096fda07015f}, !- Handle
  {c11f45c1-52bd-4740-bb25-fb35b71351bd}, !- Name
  ,                                       !- Source Object
  11,                                     !- Outlet Port
  ,                                       !- Target Object
  2;                                      !- Inlet Port

OS:Space,
  {72633814-e8c1-4918-b2fb-36627af5d5cb}, !- Handle
  Perimeter_ZN_2,                         !- Name
  ,                                       !- Space Type Name
  ,                                       !- Default Construction Set Name
  ,                                       !- Default Schedule Set Name
  0,                                      !- Direction of Relative North {deg}
  0,                                      !- X Origin {m}
  0,                                      !- Y Origin {m}
  0,                                      !- Z Origin {m}
  ,                                       !- Building Story Name
  ,                                       !- Thermal Zone Name
  Yes;                                    !- Part of Total Floor Area

OS:InternalMass:Definition,
  {333edebc-3c4b-47a5-b6ee-f990cf26ce94}, !- Handle
  Perimeter_ZN_3 Internal Mass Definition, !- Name
  ,                                       !- Construction Name
  SurfaceArea,                            !- Design Level Calculation Method
  226.9,                                  !- Surface Area {m2}
  ,                                       !- Surface Area per Space Floor Area {dimensionless}
  ;                                       !- Surface Area per Person {m2/person}

OS:InternalMass,
  {4bad09b0-91de-444f-98a5-53b8a37806cc}, !- Handle
  Perimeter_ZN_3 Internal Mass,           !- Name
  {333edebc-3c4b-47a5-b6ee-f990cf26ce94}, !- Internal Mass Definition Name
  {ce1c6363-8716-49c5-9c63-fcfe075ed1ef}; !- Space or SpaceType Name

OS:Connection,
  {0101cf5a-56bf-45c0-9d91-ad926d1ef1f6}, !- Handle
  {cf035429-51f2-4d08-a283-0ee739fa9755}, !- Name
  ,                                       !- Source Object
  11,                                     !- Outlet Port
  ,                                       !- Target Object
  2;                                      !- Inlet Port

OS:Space,
  {ce1c6363-8716-49c5-9c63-fcfe075ed1ef}, !- Handle
  Perimeter_ZN_3,                         !- Name
  ,                                       !- Space Type Name
  ,                                       !- Default Construction Set Name
  ,                                       !- Default Schedule Set Name
  0,                                      !- Direction of Relative North {deg}
  0,                                      !- X Origin {m}
  0,                                      !- Y Origin {m}
  0,                                      !- Z Origin {m}
  ,                                       !- Building Story Name
  ,                                       !- Thermal Zone Name
  Yes;                                    !- Part of Total Floor Area

OS:Schedule:Compact,
  {5bb1a307-d38d-4f16-a326-4ccc8b31b3bb}, !- Handle
  Water Equipment Temp Sched,             !- Name
  {9bcd0599-906a-423d-9869-f6b99c772e34}, !- Schedule Type Limits Name
  Through: 12/31,                         !- Field 1
  For: AllDays,                           !- Field 2
  Until: 24:00,                           !- Field 3
  43.3;                                   !- Field 4

OS:Meter,
  {3ed363dd-658f-4f47-a3e6-d0e3db162eed}, !- Handle
  WaterSystems:Electricity,               !- Name
  hourly,                                 !- Reporting Frequency
  False,                                  !- Meter File Only
  False;                                  !- Cumulative

OS:Schedule:Compact,
  {a46ac5f5-4a0a-49fa-8b01-41ff9dbd2303}, !- Handle
  BLDG_OCC_SCH,                           !- Name
  {1f2c65b1-5216-4527-a781-748a0aafb7f6}, !- Schedule Type Limits Name
  Through: 12/31,                         !- Field 1
  For: SummerDesignDay,                   !- Field 2
  Until: 06:00,                           !- Field 3
  0.0,                                    !- Field 4
  Until: 22:00,                           !- Field 5
  1.0,                                    !- Field 6
  Until: 24:00,                           !- Field 7
  0.05,                                   !- Field 8
  For: Weekdays,                          !- Field 9
  Until: 06:00,                           !- Field 10
  0.0,                                    !- Field 11
  Until: 07:00,                           !- Field 12
  0.1,                                    !- Field 13
  Until: 08:00,                           !- Field 14
  0.2,                                    !- Field 15
  Until: 12:00,                           !- Field 16
  0.95,                                   !- Field 17
  Until: 13:00,                           !- Field 18
  0.5,                                    !- Field 19
  Until: 17:00,                           !- Field 20
  0.95,                                   !- Field 21
  Until: 18:00,                           !- Field 22
  0.3,                                    !- Field 23
  Until: 20:00,                           !- Field 24
  0.1,                                    !- Field 25
  Until: 24:00,                           !- Field 26
  0.05,                                   !- Field 27
  For: Saturday,                          !- Field 28
  Until: 06:00,                           !- Field 29
  0.0,                                    !- Field 30
  Until: 08:00,                           !- Field 31
  0.1,                                    !- Field 32
  Until: 12:00,                           !- Field 33
  0.3,                                    !- Field 34
  Until: 17:00,                           !- Field 35
  0.1,                                    !- Field 36
  Until: 24:00,                           !- Field 37
  0.0,                                    !- Field 38
  For: AllOtherDays,                      !- Field 39
  Until: 24:00,                           !- Field 40
  0.0;                                    !- Field 41

OS:Schedule:Compact,
  {cffbf480-218f-4ce8-939d-41f7ecd1bec9}, !- Handle
  ACTIVITY_SCH,                           !- Name
  {67a8a60e-189f-409b-800a-0c801cc1c960}, !- Schedule Type Limits Name
  Through: 12/31,                         !- Field 1
  For: AllDays,                           !- Field 2
  Until: 24:00,                           !- Field 3
  120;                                    !- Field 4

OS:ScheduleTypeLimits,
  {ab44a057-0fbb-4a08-8746-5fb767cd8081}, !- Handle
  {eab4af17-64aa-48de-99af-bc88cd8fa9b1}; !- Name

OS:ScheduleTypeLimits,
  {67a8a60e-189f-409b-800a-0c801cc1c960}, !- Handle
  ActivityLevel,                          !- Name
  0,                                      !- Lower Limit Value {BasedOnField A4}
  ,                                       !- Upper Limit Value {BasedOnField A4}
  Continuous,                             !- Numeric Type
  ActivityLevel;                          !- Unit Type

OS:Schedule:Compact,
  {27d13536-4df9-4327-9d0f-a97767f500e5}, !- Handle
  WORK_EFF_SCH,                           !- Name
  {1f2c65b1-5216-4527-a781-748a0aafb7f6}, !- Schedule Type Limits Name
  Through: 12/31,                         !- Field 1
  For: AllDays,                           !- Field 2
  Until: 24:00,                           !- Field 3
  0.0;                                    !- Field 4

OS:Meter,
  {b38b0b2a-eeb2-4913-8ea6-34219fb98f43}, !- Handle
  InteriorEquipment:Gas,                  !- Name
  hourly,                                 !- Reporting Frequency
  False,                                  !- Meter File Only
  False;                                  !- Cumulative

OS:SubSurface,
  {371bc0e3-79ec-4627-9d11-3d602538a067}, !- Handle
  Perimeter_ZN_3_wall_north_Window_1,     !- Name
  FixedWindow,                            !- Sub Surface Type
  ,                                       !- Construction Name
  {10b4817c-5a8b-4c86-9dc2-150c027cb565}, !- Surface Name
  ,                                       !- Outside Boundary Condition Object
  ,                                       !- View Factor to Ground
  ,                                       !- Shading Control Name
  ,                                       !- Frame and Divider Name
  1,                                      !- Multiplier
  ,                                       !- Number of Vertices
  26.3, 18.46, 2.424,                     !- X,Y,Z Vertex 1 {m}
  26.3, 18.46, 0.9,                       !- X,Y,Z Vertex 2 {m}
  24.47, 18.46, 0.9,                      !- X,Y,Z Vertex 3 {m}
  24.47, 18.46, 2.424;                    !- X,Y,Z Vertex 4 {m}

OS:Surface,
  {10b4817c-5a8b-4c86-9dc2-150c027cb565}, !- Handle
  Perimeter_ZN_3_wall_north,              !- Name
  Wall,                                   !- Surface Type
  ,                                       !- Construction Name
  {ce1c6363-8716-49c5-9c63-fcfe075ed1ef}, !- Space Name
  Outdoors,                               !- Outside Boundary Condition
  ,                                       !- Outside Boundary Condition Object
  SunExposed,                             !- Sun Exposure
  WindExposed,                            !- Wind Exposure
  ,                                       !- View Factor to Ground
  ,                                       !- Number of Vertices
  27.69, 18.46, 3.05,                     !- X,Y,Z Vertex 1 {m}
  27.69, 18.46, 0,                        !- X,Y,Z Vertex 2 {m}
  0, 18.46, 0,                            !- X,Y,Z Vertex 3 {m}
  0, 18.46, 3.05;                         !- X,Y,Z Vertex 4 {m}

OS:ScheduleTypeLimits,
  {0c476c16-f1a0-48d7-ace2-eeefc8983275}, !- Handle
  On/Off,                                 !- Name
  0,                                      !- Lower Limit Value {BasedOnField A4}
  1,                                      !- Upper Limit Value {BasedOnField A4}
  DISCRETE,                               !- Numeric Type
  Availability;                           !- Unit Type

OS:Surface,
  {e4f04e8f-ab29-4774-961a-10edd5eed7e9}, !- Handle
  Perimeter_ZN_3_wall_south,              !- Name
  Wall,                                   !- Surface Type
  ,                                       !- Construction Name
  {ce1c6363-8716-49c5-9c63-fcfe075ed1ef}, !- Space Name
  Surface,                                !- Outside Boundary Condition
  {77ce613d-8ecc-40ee-89b7-eb54ca872cfe}, !- Outside Boundary Condition Object
  NoSun,                                  !- Sun Exposure
  NoWind,                                 !- Wind Exposure
  ,                                       !- View Factor to Ground
  ,                                       !- Number of Vertices
  5, 13.46, 3.05,                         !- X,Y,Z Vertex 1 {m}
  5, 13.46, 0,                            !- X,Y,Z Vertex 2 {m}
  22.69, 13.46, 0,                        !- X,Y,Z Vertex 3 {m}
  22.69, 13.46, 3.05;                     !- X,Y,Z Vertex 4 {m}

OS:SubSurface,
  {016b0bca-5577-46cb-96f5-50244e9753a8}, !- Handle
  Perimeter_ZN_2_wall_east_Window_1,      !- Name
  FixedWindow,                            !- Sub Surface Type
  ,                                       !- Construction Name
  {7ae9d4af-3e5e-4f78-b99c-fb90136804ba}, !- Surface Name
  ,                                       !- Outside Boundary Condition Object
  ,                                       !- View Factor to Ground
  ,                                       !- Shading Control Name
  ,                                       !- Frame and Divider Name
  1,                                      !- Multiplier
  ,                                       !- Number of Vertices
  27.69, 1.39, 2.424,                     !- X,Y,Z Vertex 1 {m}
  27.69, 1.39, 0.9,                       !- X,Y,Z Vertex 2 {m}
  27.69, 3.22, 0.9,                       !- X,Y,Z Vertex 3 {m}
  27.69, 3.22, 2.424;                     !- X,Y,Z Vertex 4 {m}

OS:Surface,
  {7ae9d4af-3e5e-4f78-b99c-fb90136804ba}, !- Handle
  Perimeter_ZN_2_wall_east,               !- Name
  Wall,                                   !- Surface Type
  ,                                       !- Construction Name
  {72633814-e8c1-4918-b2fb-36627af5d5cb}, !- Space Name
  Outdoors,                               !- Outside Boundary Condition
  ,                                       !- Outside Boundary Condition Object
  SunExposed,                             !- Sun Exposure
  WindExposed,                            !- Wind Exposure
  ,                                       !- View Factor to Ground
  ,                                       !- Number of Vertices
  27.69, 0, 3.05,                         !- X,Y,Z Vertex 1 {m}
  27.69, 0, 0,                            !- X,Y,Z Vertex 2 {m}
  27.69, 18.46, 0,                        !- X,Y,Z Vertex 3 {m}
  27.69, 18.46, 3.05;                     !- X,Y,Z Vertex 4 {m}

OS:Timestep,
  {fa38ef5a-209c-49db-9b2e-bb9bb671ea0c}, !- Handle
  6;                                      !- Number of Timesteps per Hour

OS:Surface,
  {d9b7ffab-f24f-4441-b761-5c0b6972eb18}, !- Handle
  Perimeter_ZN_2_wall_north,              !- Name
  Wall,                                   !- Surface Type
  ,                                       !- Construction Name
  {72633814-e8c1-4918-b2fb-36627af5d5cb}, !- Space Name
  Surface,                                !- Outside Boundary Condition
  {e5c2b2d5-3ad3-4179-a058-b912a469687d}, !- Outside Boundary Condition Object
  NoSun,                                  !- Sun Exposure
  NoWind,                                 !- Wind Exposure
  ,                                       !- View Factor to Ground
  ,                                       !- Number of Vertices
  27.69, 18.46, 3.05,                     !- X,Y,Z Vertex 1 {m}
  27.69, 18.46, 0,                        !- X,Y,Z Vertex 2 {m}
  22.69, 13.46, 0,                        !- X,Y,Z Vertex 3 {m}
  22.69, 13.46, 3.05;                     !- X,Y,Z Vertex 4 {m}

OS:Schedule:Compact,
  {a9ab0769-5ac9-4fc7-94af-e53ec72ae95a}, !- Handle
  INFIL_QUARTER_ON_SCH,                   !- Name
  {1f2c65b1-5216-4527-a781-748a0aafb7f6}, !- Schedule Type Limits Name
  Through: 12/31,                         !- Field 1
  For: Weekdays SummerDesignDay,          !- Field 2
  Until: 06:00,                           !- Field 3
  1.0,                                    !- Field 4
  Until: 22:00,                           !- Field 5
  0.25,                                   !- Field 6
  Until: 24:00,                           !- Field 7
  1.0,                                    !- Field 8
  For: Saturday WinterDesignDay,          !- Field 9
  Until: 06:00,                           !- Field 10
  1.0,                                    !- Field 11
  Until: 18:00,                           !- Field 12
  0.25,                                   !- Field 13
  Until: 24:00,                           !- Field 14
  1.0,                                    !- Field 15
  For: Sunday Holidays AllOtherDays,      !- Field 16
  Until: 24:00,                           !- Field 17
  1.0;                                    !- Field 18

OS:Surface,
  {ef8bd535-98e1-4b3f-9f7b-4238c3eebe87}, !- Handle
  Perimeter_ZN_2_wall_south,              !- Name
  Wall,                                   !- Surface Type
  ,                                       !- Construction Name
  {72633814-e8c1-4918-b2fb-36627af5d5cb}, !- Space Name
  Surface,                                !- Outside Boundary Condition
  {e2c95bb7-7a90-4bbe-ad18-3cac557298f0}, !- Outside Boundary Condition Object
  NoSun,                                  !- Sun Exposure
  NoWind,                                 !- Wind Exposure
  ,                                       !- View Factor to Ground
  ,                                       !- Number of Vertices
  22.69, 5, 3.05,                         !- X,Y,Z Vertex 1 {m}
  22.69, 5, 0,                            !- X,Y,Z Vertex 2 {m}
  27.69, 2.04187384066908e-015, 0,        !- X,Y,Z Vertex 3 {m}
  27.69, 2.04187384066908e-015, 3.05;     !- X,Y,Z Vertex 4 {m}

OS:SubSurface,
  {b3a474a3-13e3-41a7-b742-f9eedf1247e8}, !- Handle
  Perimeter_ZN_1_wall_south_Window_2,     !- Name
  FixedWindow,                            !- Sub Surface Type
  ,                                       !- Construction Name
  {d0fc8611-d3af-4116-ab61-d5b8823f69bf}, !- Surface Name
  ,                                       !- Outside Boundary Condition Object
  ,                                       !- View Factor to Ground
  ,                                       !- Shading Control Name
  ,                                       !- Frame and Divider Name
  1,                                      !- Multiplier
  ,                                       !- Number of Vertices
  6.01, 0, 2.424,                         !- X,Y,Z Vertex 1 {m}
  6.01, 0, 0.9,                           !- X,Y,Z Vertex 2 {m}
  7.84, 0, 0.9,                           !- X,Y,Z Vertex 3 {m}
  7.84, 0, 2.424;                         !- X,Y,Z Vertex 4 {m}

OS:Surface,
  {d0fc8611-d3af-4116-ab61-d5b8823f69bf}, !- Handle
  Perimeter_ZN_1_wall_south,              !- Name
  Wall,                                   !- Surface Type
  ,                                       !- Construction Name
  {b101b580-5445-4089-b8ff-3798467804c4}, !- Space Name
  Outdoors,                               !- Outside Boundary Condition
  ,                                       !- Outside Boundary Condition Object
  SunExposed,                             !- Sun Exposure
  WindExposed,                            !- Wind Exposure
  ,                                       !- View Factor to Ground
  ,                                       !- Number of Vertices
  0, 0, 3.05,                             !- X,Y,Z Vertex 1 {m}
  0, 0, 0,                                !- X,Y,Z Vertex 2 {m}
  27.69, 0, 0,                            !- X,Y,Z Vertex 3 {m}
  27.69, 0, 3.05;                         !- X,Y,Z Vertex 4 {m}

OS:Connection,
  {e88bb44f-c00d-43e4-910b-136ba4f54281}, !- Handle
  {8712e4bd-8165-4b05-beda-b814208c6b77}, !- Name
  ,                                       !- Source Object
  11,                                     !- Outlet Port
  ,                                       !- Target Object
  2;                                      !- Inlet Port

OS:Space,
  {b101b580-5445-4089-b8ff-3798467804c4}, !- Handle
  Perimeter_ZN_1,                         !- Name
  ,                                       !- Space Type Name
  ,                                       !- Default Construction Set Name
  ,                                       !- Default Schedule Set Name
  0,                                      !- Direction of Relative North {deg}
  0,                                      !- X Origin {m}
  0,                                      !- Y Origin {m}
  0,                                      !- Z Origin {m}
  ,                                       !- Building Story Name
  ,                                       !- Thermal Zone Name
  Yes;                                    !- Part of Total Floor Area

OS:Schedule:Compact,
  {1820124a-873c-4d02-9519-77c1ae69b1b9}, !- Handle
  CLOTHING_SCH,                           !- Name
  ,                                       !- Schedule Type Limits Name
  Through: 04/30,                         !- Field 1
  For: AllDays,                           !- Field 2
  Until: 24:00,                           !- Field 3
  1.0,                                    !- Field 4
  Through: 09/30,                         !- Field 5
  For: AllDays,                           !- Field 6
  Until: 24:00,                           !- Field 7
  0.5,                                    !- Field 8
  Through: 12/31,                         !- Field 9
  For: AllDays,                           !- Field 10
  Until: 24:00,                           !- Field 11
  1.0;                                    !- Field 12

OS:ScheduleTypeLimits,
  {2909f813-3db1-4d48-ad75-04ca49b7f968}, !- Handle
  {2562cfd8-bc18-4ca2-b8c1-0517bd9fdd40}; !- Name

OS:Schedule:Compact,
  {add56bf9-1be4-46db-8216-1a359b1a6bd5}, !- Handle
  BLDG_SWH_SCH,                           !- Name
  {1f2c65b1-5216-4527-a781-748a0aafb7f6}, !- Schedule Type Limits Name
  Through: 12/31,                         !- Field 1
  For: Weekdays SummerDesignDay,          !- Field 2
  Until: 05:00,                           !- Field 3
  0.05,                                   !- Field 4
  Until: 06:00,                           !- Field 5
  0.08,                                   !- Field 6
  Until: 07:00,                           !- Field 7
  0.07,                                   !- Field 8
  Until: 08:00,                           !- Field 9
  0.19,                                   !- Field 10
  Until: 09:00,                           !- Field 11
  0.35,                                   !- Field 12
  Until: 10:00,                           !- Field 13
  0.38,                                   !- Field 14
  Until: 11:00,                           !- Field 15
  0.39,                                   !- Field 16
  Until: 12:00,                           !- Field 17
  0.47,                                   !- Field 18
  Until: 13:00,                           !- Field 19
  0.57,                                   !- Field 20
  Until: 14:00,                           !- Field 21
  0.54,                                   !- Field 22
  Until: 15:00,                           !- Field 23
  0.34,                                   !- Field 24
  Until: 16:00,                           !- Field 25
  0.33,                                   !- Field 26
  Until: 17:00,                           !- Field 27
  0.44,                                   !- Field 28
  Until: 18:00,                           !- Field 29
  0.26,                                   !- Field 30
  Until: 19:00,                           !- Field 31
  0.21,                                   !- Field 32
  Until: 20:00,                           !- Field 33
  0.15,                                   !- Field 34