
OS:Version,
  {731a1fae-41ae-4d28-a962-057935ff2a05}, !- Handle
  1.5.0;                                  !- Version Identifier

OS:Site,
  {c57bbf3e-5555-4e8f-a064-f03eb5a0e42f}, !- Handle
  San Francisco Intl Ap_CA_USA Design_Conditions, !- Name
  37.62,                                  !- Latitude {deg}
  -122.4,                                 !- Longitude {deg}
  -8,                                     !- Time Zone {hr}
  2,                                      !- Elevation {m}
  City;                                   !- Terrain

OS:SimulationControl,
  {8319685c-4a24-4d40-bf6f-d94387dacb21}, !- Handle
  Yes,                                    !- Do Zone Sizing Calculation
  Yes,                                    !- Do System Sizing Calculation
  Yes,                                    !- Do Plant Sizing Calculation
  Yes,                                    !- Run Simulation for Sizing Periods
  Yes,                                    !- Run Simulation for Weather File Run Periods
  0.04,                                   !- Loads Convergence Tolerance Value
  0.2,                                    !- Temperature Convergence Tolerance Value {deltaC}
  FullInteriorAndExterior,                !- Solar Distribution
  25,                                     !- Maximum Number of Warmup Days
  6;                                      !- Minimum Number of Warmup Days

OS:Surface,
  {aeb5cd29-a61e-4f1d-a376-0e8c63c45f3b}, !- Handle
  Room_2_Flr_6_Ceiling,                   !- Name
  RoofCeiling,                            !- Surface Type
  ,                                       !- Construction Name
  {735c6fa8-525c-45a3-82b3-b38ec3245a8f}, !- Space Name
  Outdoors,                               !- Outside Boundary Condition
  ,                                       !- Outside Boundary Condition Object
  SunExposed,                             !- Sun Exposure
  WindExposed,                            !- Wind Exposure
  ,                                       !- View Factor to Ground
  ,                                       !- Number of Vertices
  4.572, 14.326, 19.2,                    !- X,Y,Z Vertex 1 {m}
  4.572, 22.86, 19.2,                     !- X,Y,Z Vertex 2 {m}
  0, 22.86, 19.2,                         !- X,Y,Z Vertex 3 {m}
  0, 14.326, 19.2;                        !- X,Y,Z Vertex 4 {m}

OS:Connection,
  {781cba12-e6df-4891-9f19-d4162ef2e789}, !- Handle
  {82196ee2-affe-4413-892e-8bf2a47c3d77}, !- Name
  ,                                       !- Source Object
  11,                                     !- Outlet Port
  ,                                       !- Target Object
  2;                                      !- Inlet Port

OS:Space,
  {735c6fa8-525c-45a3-82b3-b38ec3245a8f}, !- Handle
  Room_2_Flr_6,                           !- Name
  ,                                       !- Space Type Name
  ,                                       !- Default Construction Set Name
  ,                                       !- Default Schedule Set Name
  0,                                      !- Direction of Relative North {deg}
  0,                                      !- X Origin {m}
  0,                                      !- Y Origin {m}
  0,                                      !- Z Origin {m}
  ,                                       !- Building Story Name
  ,                                       !- Thermal Zone Name
  Yes;                                    !- Part of Total Floor Area

OS:Schedule:Compact,
  {1632207f-4732-421d-9de7-455e9eacd88f}, !- Handle
  N Adva_OccGuestRoom_HtgSP_Sch,          !- Name
  {4b2d67fd-1b1a-4d22-b3e6-23d7917b0eba}, !- Schedule Type Limits Name
  Through: 12/31,                         !- Field 1
  For: SummerDesignDay WinterDesignDay,   !- Field 2
  Until: 24:00,                           !- Field 3
  21.111,                                 !- Field 4
  For: AllOtherDays,                      !- Field 5
  Until: 9:00,                            !- Field 6
  21.111,                                 !- Field 7
  Until: 16:00,                           !- Field 8
  18.889,                                 !- Field 9
  Until: 24:00,                           !- Field 10
  21.111;                                 !- Field 11

OS:ScheduleTypeLimits,
  {4b2d67fd-1b1a-4d22-b3e6-23d7917b0eba}, !- Handle
  Temperature,                            !- Name
  -60,                                    !- Lower Limit Value {BasedOnField A4}
  200,                                    !- Upper Limit Value {BasedOnField A4}
  CONTINUOUS,                             !- Numeric Type
  Temperature;                            !- Unit Type

OS:Schedule:Compact,
  {325d5991-0d8d-4d20-89eb-24110cdbd383}, !- Handle
  N Adva_OccGuestRoom_ClgSP_Sch,          !- Name
  {4b2d67fd-1b1a-4d22-b3e6-23d7917b0eba}, !- Schedule Type Limits Name
  Through: 12/31,                         !- Field 1
  For: SummerDesignDay WinterDesignDay,   !- Field 2
  Until: 24:00,                           !- Field 3
  21.111,                                 !- Field 4
  For: AllOtherDays,                      !- Field 5
  Until: 9:00,                            !- Field 6
  21.111,                                 !- Field 7
  Until: 16:00,                           !- Field 8
  23.333,                                 !- Field 9
  Until: 24:00,                           !- Field 10
  21.111;                                 !- Field 11

OS:Connection,
  {4c0e5a9e-286b-489f-b267-6f34abc63eb3}, !- Handle
  {56b45f19-65b8-4348-8026-e12e4644f5e8}, !- Name
  ,                                       !- Source Object
  11,                                     !- Outlet Port
  ,                                       !- Target Object
  2;                                      !- Inlet Port

OS:Space,
  {1c9aeaea-a105-4381-890b-4d9f9ad931ee}, !- Handle
  Corridor_Flr_3,                         !- Name
  ,                                       !- Space Type Name
  ,                                       !- Default Construction Set Name
  ,                                       !- Default Schedule Set Name
  0,                                      !- Direction of Relative North {deg}
  0,                                      !- X Origin {m}
  0,                                      !- Y Origin {m}
  0,                                      !- Z Origin {m}
  ,                                       !- Building Story Name
  ,                                       !- Thermal Zone Name
  Yes;                                    !- Part of Total Floor Area

OS:Schedule:Compact,
  {1db9039e-1332-42b2-9d54-08bad319e420}, !- Handle
  HTGSETP_SCH,                            !- Name
  {4b2d67fd-1b1a-4d22-b3e6-23d7917b0eba}, !- Schedule Type Limits Name
  Through: 12/31,                         !- Field 1
  For: AllDays,                           !- Field 2
  Until: 24:00,                           !- Field 3
  21.;                                    !- Field 4

OS:Schedule:Compact,
  {96f05165-0272-45d0-a0e8-0da8a4c1d14e}, !- Handle
  CLGSETP_SCH,                            !- Name
  {4b2d67fd-1b1a-4d22-b3e6-23d7917b0eba}, !- Schedule Type Limits Name
  Through: 12/31,                         !- Field 1
  For: AllDays,                           !- Field 2
  Until: 24:00,                           !- Field 3
  24.;                                    !- Field 4

OS:Schedule:Compact,
  {7472909b-b4f7-48c1-a466-d07595e0b02e}, !- Handle
  INFIL_QUARTER_ON_SCH,                   !- Name
  {d1302c57-ca8e-465b-a156-731f6dfe3be4}, !- Schedule Type Limits Name
  Through: 12/31,                         !- Field 1
  For: AllDays,                           !- Field 2
  Until: 24:00,                           !- Field 3
  0.25;                                   !- Field 4

OS:ScheduleTypeLimits,
  {d1302c57-ca8e-465b-a156-731f6dfe3be4}, !- Handle
  Fraction,                               !- Name
  0,                                      !- Lower Limit Value {BasedOnField A4}
  1,                                      !- Upper Limit Value {BasedOnField A4}
  CONTINUOUS;                             !- Numeric Type

OS:Schedule:Compact,
  {cf637331-738a-47f7-b043-e53d45be83ea}, !- Handle
  S Adva_OccGuestRoom_HtgSP_Sch,          !- Name
  {4b2d67fd-1b1a-4d22-b3e6-23d7917b0eba}, !- Schedule Type Limits Name
  Through: 12/31,                         !- Field 1
  For: SummerDesignDay WinterDesignDay,   !- Field 2
  Until: 24:00,                           !- Field 3
  21.111,                                 !- Field 4
  For: AllOtherDays,                      !- Field 5
  Until: 9:00,                            !- Field 6
  21.111,                                 !- Field 7
  Until: 16:00,                           !- Field 8
  18.889,                                 !- Field 9
  Until: 24:00,                           !- Field 10
  21.111;                                 !- Field 11

OS:ConvergenceLimits,
  {70f72b8f-0f12-4d6c-9b47-243771b0e570}, !- Handle
  1,                                      !- Minimum System Timestep {minutes}
  20;                                     !- Maximum HVAC Iterations

OS:Surface,
  {c6949061-d672-44fe-ae38-b59964db2117}, !- Handle
  Banquet_Flr_6_Wall_North,               !- Name
  Wall,                                   !- Surface Type
  ,                                       !- Construction Name
  {ba3048dd-f7da-474c-bbec-d2605f9e6cc4}, !- Space Name
  Outdoors,                               !- Outside Boundary Condition
  ,                                       !- Outside Boundary Condition Object
  SunExposed,                             !- Sun Exposure
  WindExposed,                            !- Wind Exposure
  ,                                       !- View Factor to Ground
  ,                                       !- Number of Vertices
  42.367, 22.86, 19.2,                    !- X,Y,Z Vertex 1 {m}
  42.367, 22.86, 16.152,                  !- X,Y,Z Vertex 2 {m}
  10.363, 22.86, 16.152,                  !- X,Y,Z Vertex 3 {m}
  10.363, 22.86, 19.2;                    !- X,Y,Z Vertex 4 {m}

OS:Connection,
  {5070de4c-886e-4c17-b6b0-35b5d628bfb8}, !- Handle
  {dc7fc591-b2d6-42da-b88b-31c586c32961}, !- Name
  ,                                       !- Source Object
  11,                                     !- Outlet Port
  ,                                       !- Target Object
  2;                                      !- Inlet Port

OS:Space,
  {ba3048dd-f7da-474c-bbec-d2605f9e6cc4}, !- Handle
  Banquet_Flr_6,                          !- Name
  ,                                       !- Space Type Name
  ,                                       !- Default Construction Set Name
  ,                                       !- Default Schedule Set Name
  0,                                      !- Direction of Relative North {deg}
  0,                                      !- X Origin {m}
  0,                                      !- Y Origin {m}
  0,                                      !- Z Origin {m}
  ,                                       !- Building Story Name
  ,                                       !- Thermal Zone Name
  Yes;                                    !- Part of Total Floor Area

OS:Connection,
  {65d7cf7d-d932-493f-89db-86a3c9021e51}, !- Handle
  {5a7575ae-9035-45b0-8573-f6f2bbf36667}, !- Name
  ,                                       !- Source Object
  11,                                     !- Outlet Port
  ,                                       !- Target Object
  2;                                      !- Inlet Port

OS:Space,
  {b4cff31b-2b2e-470e-b7c8-55b05f6374f6}, !- Handle
  Laundry_Flr_1,                          !- Name
  ,                                       !- Space Type Name
  ,                                       !- Default Construction Set Name
  ,                                       !- Default Schedule Set Name
  0,                                      !- Direction of Relative North {deg}
  0,                                      !- X Origin {m}
  0,                                      !- Y Origin {m}
  0,                                      !- Z Origin {m}
  ,                                       !- Building Story Name
  ,                                       !- Thermal Zone Name
  Yes;                                    !- Part of Total Floor Area

OS:Schedule:Compact,
  {2ed75d44-01d4-429d-9882-131d18a98404}, !- Handle
  BLDG_OCC_SCH,                           !- Name
  {d1302c57-ca8e-465b-a156-731f6dfe3be4}, !- Schedule Type Limits Name
  Through: 12/31,                         !- Field 1
  For: Weekdays,                          !- Field 2
  Until: 06:00,                           !- Field 3
  0.9,                                    !- Field 4
  Until: 07:00,                           !- Field 5
  0.7,                                    !- Field 6
  Until: 09:00,                           !- Field 7
  0.4,                                    !- Field 8
  Until: 15:00,                           !- Field 9
  0.2,                                    !- Field 10
  Until: 16:00,                           !- Field 11
  0.3,                                    !- Field 12
  Until: 19:00,                           !- Field 13
  0.5,                                    !- Field 14
  Until: 21:00,                           !- Field 15
  0.7,                                    !- Field 16
  Until: 22:00,                           !- Field 17
  0.8,                                    !- Field 18
  Until: 24:00,                           !- Field 19
  0.9,                                    !- Field 20
  For: SummerDesignDay,                   !- Field 21
  Until: 24:00,                           !- Field 22
  1.0,                                    !- Field 23
  For: Saturday,                          !- Field 24
  Until: 06:00,                           !- Field 25
  0.9,                                    !- Field 26
  Until: 07:00,                           !- Field 27
  0.7,                                    !- Field 28
  Until: 09:00,                           !- Field 29
  0.5,                                    !- Field 30
  Until: 17:00,                           !- Field 31
  0.3,                                    !- Field 32
  Until: 18:00,                           !- Field 33
  0.5,                                    !- Field 34
  Until: 21:00,                           !- Field 35
  0.6,                                    !- Field 36
  Until: 24:00,                           !- Field 37
  0.7,                                    !- Field 38
  For: WinterDesignDay,                   !- Field 39
  Until: 24:00,                           !- Field 40
  0.0,                                    !- Field 41
  For: Sunday Holidays AllOtherDays,      !- Field 42
  Until: 08:00,                           !- Field 43
  0.7,                                    !- Field 44
  Until: 11:00,                           !- Field 45
  0.5,                                    !- Field 46
  Until: 13:00,                           !- Field 47
  0.3,                                    !- Field 48
  Until: 16:00,                           !- Field 49
  0.2,                                    !- Field 50
  Until: 17:00,                           !- Field 51
  0.3,                                    !- Field 52
  Until: 19:00,                           !- Field 53
  0.4,                                    !- Field 54
  Until: 21:00,                           !- Field 55
  0.6,                                    !- Field 56
  Until: 24:00,                           !- Field 57
  0.8;                                    !- Field 58

OS:Schedule:Compact,
  {a6993798-4bf1-4816-b9ee-c73dcb5c07f3}, !- Handle
  ACTIVITY_SCH,                           !- Name
  {2b2e2409-5a38-42f8-8994-4a98fbef9543}, !- Schedule Type Limits Name
  Through: 12/31,                         !- Field 1
  For: AllDays,                           !- Field 2
  Until: 24:00,                           !- Field 3
  120.;                                   !- Field 4

OS:ScheduleTypeLimits,
  {0dee4a0b-21ff-4af6-8d83-4d880c87e346}, !- Handle
  {07d9c4cc-e621-42a2-8d57-b4272713e7f2}; !- Name

OS:ScheduleTypeLimits,
  {2b2e2409-5a38-42f8-8994-4a98fbef9543}, !- Handle
  ActivityLevel,                          !- Name
  0,                                      !- Lower Limit Value {BasedOnField A4}
  ,                                       !- Upper Limit Value {BasedOnField A4}
  Continuous,                             !- Numeric Type
  ActivityLevel;                          !- Unit Type

OS:Schedule:Compact,
  {17e0abee-8061-4a95-aab6-1f4896a71257}, !- Handle
  WORK_EFF_SCH,                           !- Name
  {d1302c57-ca8e-465b-a156-731f6dfe3be4}, !- Schedule Type Limits Name
  Through: 12/31,                         !- Field 1
  For: AllDays,                           !- Field 2
  Until: 24:00,                           !- Field 3
  0.0;                                    !- Field 4

OS:Surface,
  {7a866f98-032d-41ac-a05d-868768c9a2ff}, !- Handle
  Lobby_Flr_1_Wall_2_West,                !- Name
  Wall,                                   !- Surface Type
  ,                                       !- Construction Name
  {5f877673-6afe-4f1f-960f-7e78d281ff4b}, !- Space Name
  Surface,                                !- Outside Boundary Condition
  {3d0a89d0-0a71-4089-9adc-9c61c7036422}, !- Outside Boundary Condition Object
  NoSun,                                  !- Sun Exposure
  NoWind,                                 !- Wind Exposure
  ,                                       !- View Factor to Ground
  ,                                       !- Number of Vertices
  11.582, 5.791, 3.9624,                  !- X,Y,Z Vertex 1 {m}
  11.582, 5.791, 0,                       !- X,Y,Z Vertex 2 {m}
  11.582, 0, 0,                           !- X,Y,Z Vertex 3 {m}
  11.582, 0, 3.9624;                      !- X,Y,Z Vertex 4 {m}

OS:Connection,
  {8d17990b-3f1e-46be-9dbb-a4a09f7ccc3f}, !- Handle
  {84618c45-75ea-4662-9b59-11311a49bba0}, !- Name
  ,                                       !- Source Object
  11,                                     !- Outlet Port
  ,                                       !- Target Object
  2;                                      !- Inlet Port

OS:Space,
  {5f877673-6afe-4f1f-960f-7e78d281ff4b}, !- Handle
  Lobby_Flr_1,                            !- Name
  ,                                       !- Space Type Name
  ,                                       !- Default Construction Set Name
  ,                                       !- Default Schedule Set Name
  0,                                      !- Direction of Relative North {deg}
  0,                                      !- X Origin {m}
  0,                                      !- Y Origin {m}
  0,                                      !- Z Origin {m}
  ,                                       !- Building Story Name
  ,                                       !- Thermal Zone Name
  Yes;                                    !- Part of Total Floor Area

OS:Connection,
  {f7376c8c-aa24-405d-a5e4-3c56fed1b56e}, !- Handle
  {c8c77bc6-b004-4604-a782-f72cb57f88ba}, !- Name
  ,                                       !- Source Object
  11,                                     !- Outlet Port
  ,                                       !- Target Object
  2;                                      !- Inlet Port

OS:Space,
  {53c7fa8b-d0a9-4d59-9f72-ab5b6de28e90}, !- Handle
  Kitchen_Flr_6,                          !- Name
  ,                                       !- Space Type Name
  ,                                       !- Default Construction Set Name
  ,                                       !- Default Schedule Set Name
  0,                                      !- Direction of Relative North {deg}
  0,                                      !- X Origin {m}
  0,                                      !- Y Origin {m}
  0,                                      !- Z Origin {m}
  ,                                       !- Building Story Name
  ,                                       !- Thermal Zone Name
  Yes;                                    !- Part of Total Floor Area

OS:Schedule:Compact,
  {9464fc13-41d0-4817-a345-1a372c887904}, !- Handle
  Kitchen_Gas_Equip_SCH,                  !- Name
  {d1302c57-ca8e-465b-a156-731f6dfe3be4}, !- Schedule Type Limits Name
  Through: 12/31,                         !- Field 1
  For: Weekdays Saturday,                 !- Field 2
  Until: 05:00,                           !- Field 3
  0.02,                                   !- Field 4
  Until: 06:00,                           !- Field 5
  0.05,                                   !- Field 6
  Until: 07:00,                           !- Field 7
  0.1,                                    !- Field 8
  Until: 08:00,                           !- Field 9
  0.15,                                   !- Field 10
  Until: 09:00,                           !- Field 11
  0.2,                                    !- Field 12
  Until: 10:00,                           !- Field 13
  0.15,                                   !- Field 14
  Until: 13:00,                           !- Field 15
  0.25,                                   !- Field 16
  Until: 14:00,                           !- Field 17
  0.2,                                    !- Field 18
  Until: 15:00,                           !- Field 19
  0.15,                                   !- Field 20
  Until: 16:00,                           !- Field 21
  0.2,                                    !- Field 22
  Until: 19:00,                           !- Field 23
  0.3,                                    !- Field 24
  Until: 21:00,                           !- Field 25
  0.20,                                   !- Field 26
  Until: 22:00,                           !- Field 27
  0.15,                                   !- Field 28
  Until: 23:00,                           !- Field 29
  0.10,                                   !- Field 30
  Until: 24:00,                           !- Field 31
  0.05,                                   !- Field 32
  For: SummerDesignDay,                   !- Field 33
  Until: 24:00,                           !- Field 34
  0.25,                                   !- Field 35
  For: WinterDesignDay,                   !- Field 36
  Until: 24:00,                           !- Field 37
  0.0,                                    !- Field 38
  For: Sunday Holidays AllOtherDays,      !- Field 39
  Until: 05:00,                           !- Field 40
  0.02,                                   !- Field 41
  Until: 06:00,                           !- Field 42
  0.05,                                   !- Field 43
  Until: 07:00,                           !- Field 44
  0.1,                                    !- Field 45
  Until: 08:00,                           !- Field 46
  0.15,                                   !- Field 47
  Until: 09:00,                           !- Field 48
  0.2,                                    !- Field 49
  Until: 10:00,                           !- Field 50
  0.15,                                   !- Field 51
  Until: 13:00,                           !- Field 52
  0.25,                                   !- Field 53
  Until: 14:00,                           !- Field 54
  0.2,                                    !- Field 55
  Until: 15:00,                           !- Field 56
  0.15,                                   !- Field 57
  Until: 16:00,                           !- Field 58
  0.2,                                    !- Field 59
  Until: 19:00,                           !- Field 60
  0.3,                                    !- Field 61
  Until: 21:00,                           !- Field 62
  0.20,                                   !- Field 63
  Until: 22:00,                           !- Field 64
  0.15,                                   !- Field 65
  Until: 23:00,                           !- Field 66
  0.10,                                   !- Field 67
  Until: 24:00,                           !- Field 68
  0.05;                                   !- Field 69

OS:Surface,
  {3d0a89d0-0a71-4089-9adc-9c61c7036422}, !- Handle
  Retail_1_Flr_1_Wall_East,               !- Name
  Wall,                                   !- Surface Type
  ,                                       !- Construction Name
  {1a878509-17bb-4788-a93c-b231afdbd395}, !- Space Name
  Surface,                                !- Outside Boundary Condition
  {7a866f98-032d-41ac-a05d-868768c9a2ff}, !- Outside Boundary Condition Object
  NoSun,                                  !- Sun Exposure
  NoWind,                                 !- Wind Exposure
  ,                                       !- View Factor to Ground
  ,                                       !- Number of Vertices
  11.582, 0, 3.9624,                      !- X,Y,Z Vertex 1 {m}
  11.582, 0, 0,                           !- X,Y,Z Vertex 2 {m}
  11.582, 5.791, 0,                       !- X,Y,Z Vertex 3 {m}
  11.582, 5.791, 3.9624;                  !- X,Y,Z Vertex 4 {m}

OS:Connection,
  {eb899891-4838-40c2-89a9-86d7fdbfc42f}, !- Handle
  {39e89701-0d42-46a4-80f6-29866275bb9a}, !- Name
  ,                                       !- Source Object
  11,                                     !- Outlet Port
  ,                                       !- Target Object
  2;                                      !- Inlet Port

OS:Space,
  {1a878509-17bb-4788-a93c-b231afdbd395}, !- Handle
  Retail_1_Flr_1,                         !- Name
  ,                                       !- Space Type Name
  ,                                       !- Default Construction Set Name
  ,                                       !- Default Schedule Set Name
  0,                                      !- Direction of Relative North {deg}
  0,                                      !- X Origin {m}
  0,                                      !- Y Origin {m}
  0,                                      !- Z Origin {m}
  ,                                       !- Building Story Name
  ,                                       !- Thermal Zone Name
  Yes;                                    !- Part of Total Floor Area

OS:Building,
  {bb5b588d-ed54-4560-ae15-dfaff42d1cbb}, !- Handle
  Large Hotel,                            !- Name
  ,                                       !- Building Sector Type
  0,                                      !- North Axis {deg}
  ,                                       !- Nominal Floor to Floor Height {m}
  ,                                       !- Space Type Name
  ,                                       !- Default Construction Set Name
  ,                                       !- Default Schedule Set Name
  ,                                       !- Standards Number of Stories
  ,                                       !- Standards Number of Above Ground Stories
  ;                                       !- Standards Building Type

OS:Connection,
  {3090efff-d176-4979-b979-fc01b07b5836}, !- Handle
  {4dd1672b-40e8-4beb-9957-e8bc89368ca0}, !- Name
  ,                                       !- Source Object
  11,                                     !- Outlet Port
  ,                                       !- Target Object
  2;                                      !- Inlet Port

OS:Space,
  {60361c47-6132-479f-892b-2ef2551c2988}, !- Handle
  Room_1_Flr_3,                           !- Name
  ,                                       !- Space Type Name
  ,                                       !- Default Construction Set Name
  ,                                       !- Default Schedule Set Name
  0,                                      !- Direction of Relative North {deg}
  0,                                      !- X Origin {m}
  0,                                      !- Y Origin {m}
  0,                                      !- Z Origin {m}
  ,                                       !- Building Story Name
  ,                                       !- Thermal Zone Name
  Yes;                                    !- Part of Total Floor Area

OS:Schedule:Compact,
  {f7e1044a-b564-4720-b321-30e775e614c8}, !- Handle
  S Adva_OccGuestRoom_ClgSP_Sch,          !- Name
  {4b2d67fd-1b1a-4d22-b3e6-23d7917b0eba}, !- Schedule Type Limits Name
  Through: 12/31,                         !- Field 1
  For: SummerDesignDay WinterDesignDay,   !- Field 2
  Until: 24:00,                           !- Field 3
  21.111,                                 !- Field 4
  For: AllOtherDays,                      !- Field 5
  Until: 9:00,                            !- Field 6
  21.111,                                 !- Field 7
  Until: 16:00,                           !- Field 8
  23.333,                                 !- Field 9
  Until: 24:00,                           !- Field 10
  21.111;                                 !- Field 11

OS:Schedule:Compact,
  {27628b1c-c1b4-4850-b545-82a9caeaea1a}, !- Handle
  GuestRoom_Occ_Sch,                      !- Name
  {d1302c57-ca8e-465b-a156-731f6dfe3be4}, !- Schedule Type Limits Name
  Through: 12/31,                         !- Field 1
  For: Weekdays,                          !- Field 2
  Until: 06:00,                           !- Field 3
  0.65,                                   !- Field 4
  Until: 07:00,                           !- Field 5
  0.50,                                   !- Field 6
  Until: 09:00,                           !- Field 7
  0.28,                                   !- Field 8
  Until: 15:00,                           !- Field 9
  0.13,                                   !- Field 10
  Until: 16:00,                           !- Field 11
  0.20,                                   !- Field 12
  Until: 19:00,                           !- Field 13
  0.35,                                   !- Field 14
  Until: 21:00,                           !- Field 15
  0.50,                                   !- Field 16
  Until: 22:00,                           !- Field 17
  0.58,                                   !- Field 18
  Until: 24:00,                           !- Field 19