
OS:Version,
  {94f586a6-0f6a-4bcc-b18c-18a859978f37}, !- Handle
  1.5.0;                                  !- Version Identifier

OS:Site,
  {12c2abec-3cad-4298-b4b4-430bc75d6bbf}, !- Handle
  USA CA-SAN FRANCISCO,                   !- Name
  37.62,                                  !- Latitude {deg}
  -122.37,                                !- Longitude {deg}
  -8,                                     !- Time Zone {hr}
  5,                                      !- Elevation {m}
  City;                                   !- Terrain

OS:SimulationControl,
  {e032c526-1447-4e09-8941-ffa0459b9391}, !- Handle
  Yes,                                    !- Do Zone Sizing Calculation
  Yes,                                    !- Do System Sizing Calculation
  Yes,                                    !- Do Plant Sizing Calculation
  No,                                     !- Run Simulation for Sizing Periods
  Yes,                                    !- Run Simulation for Weather File Run Periods
  0.04,                                   !- Loads Convergence Tolerance Value
  0.2,                                    !- Temperature Convergence Tolerance Value {deltaC}
  FullInteriorAndExterior,                !- Solar Distribution
  25,                                     !- Maximum Number of Warmup Days
  6;                                      !- Minimum Number of Warmup Days

OS:Schedule:Compact,
  {1d4d27b0-a81d-430f-acda-49bf23e31b36}, !- Handle
  Kitchen Water Equipment Hot Supply Temp Sched, !- Name
  {a30dc0b7-ec72-41e5-8349-b95339c27043}, !- Schedule Type Limits Name
  Through: 12/31,                         !- Field 1
  For: AllDays,                           !- Field 2
  Until: 24:00,                           !- Field 3
  49.0;                                   !- Field 4

OS:ScheduleTypeLimits,
  {a30dc0b7-ec72-41e5-8349-b95339c27043}, !- Handle
  Temperature,                            !- Name
  -60,                                    !- Lower Limit Value {BasedOnField A4}
  200,                                    !- Upper Limit Value {BasedOnField A4}
  CONTINUOUS,                             !- Numeric Type
  Temperature;                            !- Unit Type

OS:Surface,
  {f232418f-01eb-42e1-848b-79dc58747cb8}, !- Handle
  Room_4_Mult19_Flr_3_Wall_North,         !- Name
  Wall,                                   !- Surface Type
  ,                                       !- Construction Name
  {9ed39cce-0061-4e25-a59b-4d3c6fe4c78f}, !- Space Name
  Outdoors,                               !- Outside Boundary Condition
  ,                                       !- Outside Boundary Condition Object
  SunExposed,                             !- Sun Exposure
  WindExposed,                            !- Wind Exposure
  ,                                       !- View Factor to Ground
  ,                                       !- Number of Vertices
  14.021, 22.86, 10.056,                  !- X,Y,Z Vertex 1 {m}
  14.021, 22.86, 7.008,                   !- X,Y,Z Vertex 2 {m}
  10.363, 22.86, 7.008,                   !- X,Y,Z Vertex 3 {m}
  10.363, 22.86, 10.056;                  !- X,Y,Z Vertex 4 {m}

OS:Connection,
  {bc8969aa-4683-48b9-a1ea-7545d4ae538b}, !- Handle
  {00ea9e6f-f56f-44c4-b684-1127bee7c41c}, !- Name
  ,                                       !- Source Object
  11,                                     !- Outlet Port
  ,                                       !- Target Object
  2;                                      !- Inlet Port

OS:Space,
  {9ed39cce-0061-4e25-a59b-4d3c6fe4c78f}, !- Handle
  Room_4_Mult19_Flr_3,                    !- Name
  ,                                       !- Space Type Name
  ,                                       !- Default Construction Set Name
  ,                                       !- Default Schedule Set Name
  0,                                      !- Direction of Relative North {deg}
  0,                                      !- X Origin {m}
  0,                                      !- Y Origin {m}
  0,                                      !- Z Origin {m}
  ,                                       !- Building Story Name
  ,                                       !- Thermal Zone Name
  Yes;                                    !- Part of Total Floor Area

OS:Schedule:Compact,
  {1cbd74b9-813d-4bea-a1f4-39928488b263}, !- Handle
  Guest_HTGSETP_SCH,                      !- Name
  {a30dc0b7-ec72-41e5-8349-b95339c27043}, !- Schedule Type Limits Name
  Through: 12/31,                         !- Field 1
  For: AllDays,                           !- Field 2
  Until: 24:00,                           !- Field 3
  21.;                                    !- Field 4

OS:Schedule:Compact,
  {e7c9cac2-0adc-491a-b1fe-2f2217713345}, !- Handle
  Guest_CLGSETP_SCH,                      !- Name
  {a30dc0b7-ec72-41e5-8349-b95339c27043}, !- Schedule Type Limits Name
  Through: 12/31,                         !- Field 1
  For: AllDays,                           !- Field 2
  Until: 24:00,                           !- Field 3
  24.;                                    !- Field 4

OS:Connection,
  {ed133cc7-7e13-4061-b64c-eed3db836da6}, !- Handle
  {61a53aec-d14c-4724-88c0-39d961e5fa87}, !- Name
  ,                                       !- Source Object
  11,                                     !- Outlet Port
  ,                                       !- Target Object
  2;                                      !- Inlet Port

OS:Space,
  {1dca28a2-4d33-4a34-beaa-caab194b9a4e}, !- Handle
  Room_6_Flr_3,                           !- Name
  ,                                       !- Space Type Name
  ,                                       !- Default Construction Set Name
  ,                                       !- Default Schedule Set Name
  0,                                      !- Direction of Relative North {deg}
  0,                                      !- X Origin {m}
  0,                                      !- Y Origin {m}
  0,                                      !- Z Origin {m}
  ,                                       !- Building Story Name
  ,                                       !- Thermal Zone Name
  Yes;                                    !- Part of Total Floor Area

OS:Schedule:Compact,
  {aa7a22c1-5667-427c-9fa1-9c31b1f389bb}, !- Handle
  GuestRoom_Eqp_Sch,                      !- Name
  {f4797d9b-2d6e-4e7f-9040-a2eeeb9d7b70}, !- Schedule Type Limits Name
  Through: 12/31,                         !- Field 1
  For: Weekdays,                          !- Field 2
  Until: 06:00,                           !- Field 3
  0.20,                                   !- Field 4
  Until: 07:00,                           !- Field 5
  0.62,                                   !- Field 6
  Until: 08:00,                           !- Field 7
  0.90,                                   !- Field 8
  Until: 10:00,                           !- Field 9
  0.43,                                   !- Field 10
  Until: 17:00,                           !- Field 11
  0.26,                                   !- Field 12
  Until: 19:00,                           !- Field 13
  0.51,                                   !- Field 14
  Until: 20:00,                           !- Field 15
  0.49,                                   !- Field 16
  Until: 21:00,                           !- Field 17
  0.66,                                   !- Field 18
  Until: 22:00,                           !- Field 19
  0.70,                                   !- Field 20
  Until: 23:00,                           !- Field 21
  0.35,                                   !- Field 22
  Until: 24:00,                           !- Field 23
  0.20,                                   !- Field 24
  For: Saturday Sunday Holidays,          !- Field 25
  Until: 06:00,                           !- Field 26
  0.20,                                   !- Field 27
  Until: 07:00,                           !- Field 28
  0.3,                                    !- Field 29
  Until: 08:00,                           !- Field 30
  0.62,                                   !- Field 31
  Until: 09:00,                           !- Field 32
  0.90,                                   !- Field 33
  Until: 10:00,                           !- Field 34
  0.62,                                   !- Field 35
  Until: 17:00,                           !- Field 36
  0.29,                                   !- Field 37
  Until: 18:00,                           !- Field 38
  0.43,                                   !- Field 39
  Until: 19:00,                           !- Field 40
  0.51,                                   !- Field 41
  Until: 20:00,                           !- Field 42
  0.49,                                   !- Field 43
  Until: 21:00,                           !- Field 44
  0.66,                                   !- Field 45
  Until: 22:00,                           !- Field 46
  0.70,                                   !- Field 47
  Until: 23:00,                           !- Field 48
  0.35,                                   !- Field 49
  Until: 24:00,                           !- Field 50
  0.20,                                   !- Field 51
  For: WinterDesignDay,                   !- Field 52
  Until: 24:00,                           !- Field 53
  0.0,                                    !- Field 54
  For: SummerDesignDay CustomDay1 CustomDay2, !- Field 55
  Until: 24:00,                           !- Field 56
  1.0;                                    !- Field 57

OS:ScheduleTypeLimits,
  {f4797d9b-2d6e-4e7f-9040-a2eeeb9d7b70}, !- Handle
  Fraction,                               !- Name
  0,                                      !- Lower Limit Value {BasedOnField A4}
  1,                                      !- Upper Limit Value {BasedOnField A4}
  CONTINUOUS;                             !- Numeric Type

OS:Surface,
  {00d4c0a4-1fc4-4c5e-aa2f-2004e5912d12}, !- Handle
  Retail_1_Flr_1_Ceiling,                 !- Name
  RoofCeiling,                            !- Surface Type
  ,                                       !- Construction Name
  {d4a4e42f-8d93-49ac-ad87-6d44ac2e6c0e}, !- Space Name
  Outdoors,                               !- Outside Boundary Condition
  ,                                       !- Outside Boundary Condition Object
  SunExposed,                             !- Sun Exposure
  WindExposed,                            !- Wind Exposure
  ,                                       !- View Factor to Ground
  ,                                       !- Number of Vertices
  11.582, 0, 3.9624,                      !- X,Y,Z Vertex 1 {m}
  11.582, 5.791, 3.9624,                  !- X,Y,Z Vertex 2 {m}
  0, 5.791, 3.9624,                       !- X,Y,Z Vertex 3 {m}
  0, 0, 3.9624;                           !- X,Y,Z Vertex 4 {m}

OS:Connection,
  {131cc259-557d-4ee7-9824-931c4b9cbd3e}, !- Handle
  {a5602e91-63a8-4b8e-bd52-a71ded1eee51}, !- Name
  ,                                       !- Source Object
  11,                                     !- Outlet Port
  ,                                       !- Target Object
  2;                                      !- Inlet Port

OS:Space,
  {d4a4e42f-8d93-49ac-ad87-6d44ac2e6c0e}, !- Handle
  Retail_1_Flr_1,                         !- Name
  ,                                       !- Space Type Name
  ,                                       !- Default Construction Set Name
  ,                                       !- Default Schedule Set Name
  0,                                      !- Direction of Relative North {deg}
  0,                                      !- X Origin {m}
  0,                                      !- Y Origin {m}
  0,                                      !- Z Origin {m}
  ,                                       !- Building Story Name
  ,                                       !- Thermal Zone Name
  Yes;                                    !- Part of Total Floor Area

OS:Schedule:Compact,
  {2d97d831-4f8a-47a7-b386-b16027827511}, !- Handle
  HTGSETP_SCH,                            !- Name
  {a30dc0b7-ec72-41e5-8349-b95339c27043}, !- Schedule Type Limits Name
  Through: 12/31,                         !- Field 1
  For: AllDays,                           !- Field 2
  Until: 07:00,                           !- Field 3
  16,                                     !- Field 4
  Until: 24:00,                           !- Field 5
  21;                                     !- Field 6

OS:Schedule:Compact,
  {d0223e39-c95e-4d6a-b695-7fa268a630bf}, !- Handle
  CLGSETP_SCH,                            !- Name
  {a30dc0b7-ec72-41e5-8349-b95339c27043}, !- Schedule Type Limits Name
  Through: 12/31,                         !- Field 1
  For: AllDays,                           !- Field 2
  Until: 07:00,                           !- Field 3
  30,                                     !- Field 4
  Until: 24:00,                           !- Field 5
  24;                                     !- Field 6

OS:Connection,
  {cae85aa5-a97a-4de4-aaaa-1f8e7a8b4d38}, !- Handle
  {e30e2401-f8e8-4b5a-9131-dbcb2a7e9ace}, !- Name
  ,                                       !- Source Object
  11,                                     !- Outlet Port
  ,                                       !- Target Object
  2;                                      !- Inlet Port

OS:Space,
  {faef36fd-3157-4f01-bd01-dd0647fc5b3e}, !- Handle
  Room_3_Mult19_Flr_3,                    !- Name
  ,                                       !- Space Type Name
  ,                                       !- Default Construction Set Name
  ,                                       !- Default Schedule Set Name
  0,                                      !- Direction of Relative North {deg}
  0,                                      !- X Origin {m}
  0,                                      !- Y Origin {m}
  0,                                      !- Z Origin {m}
  ,                                       !- Building Story Name
  ,                                       !- Thermal Zone Name
  Yes;                                    !- Part of Total Floor Area

OS:Schedule:Compact,
  {b6dc9771-899e-47d9-b99f-71cbc39c11ad}, !- Handle
  GuestRoom_Occ_Sch,                      !- Name
  {f4797d9b-2d6e-4e7f-9040-a2eeeb9d7b70}, !- Schedule Type Limits Name
  Through: 12/31,                         !- Field 1
  For: Weekdays,                          !- Field 2
  Until: 06:00,                           !- Field 3
  0.65,                                   !- Field 4
  Until: 07:00,                           !- Field 5
  0.50,                                   !- Field 6
  Until: 09:00,                           !- Field 7
  0.28,                                   !- Field 8
  Until: 15:00,                           !- Field 9
  0.13,                                   !- Field 10
  Until: 16:00,                           !- Field 11
  0.20,                                   !- Field 12
  Until: 19:00,                           !- Field 13
  0.35,                                   !- Field 14
  Until: 21:00,                           !- Field 15
  0.50,                                   !- Field 16
  Until: 22:00,                           !- Field 17
  0.58,                                   !- Field 18
  Until: 24:00,                           !- Field 19
  0.65,                                   !- Field 20
  For: Saturday Sunday Holidays,          !- Field 21
  Until: 06:00,                           !- Field 22
  0.65,                                   !- Field 23
  Until: 07:00,                           !- Field 24
  0.50,                                   !- Field 25
  Until: 09:00,                           !- Field 26
  0.34,                                   !- Field 27
  Until: 17:00,                           !- Field 28
  0.20,                                   !- Field 29
  Until: 18:00,                           !- Field 30
  0.34,                                   !- Field 31
  Until: 19:00,                           !- Field 32
  0.35,                                   !- Field 33
  Until: 21:00,                           !- Field 34
  0.65,                                   !- Field 35
  Until: 24:00,                           !- Field 36
  0.50,                                   !- Field 37
  For: WinterDesignDay,                   !- Field 38
  Until: 24:00,                           !- Field 39
  0,                                      !- Field 40
  For: SummerDesignDay CustomDay1 CustomDay2, !- Field 41
  Until: 24:00,                           !- Field 42
  1.0;                                    !- Field 43

OS:Schedule:Compact,
  {a8e19a2b-bc8d-4c60-b9c4-2bf966d748f5}, !- Handle
  ACTIVITY_SCH,                           !- Name
  {9eb25a54-9e4a-45c5-a918-a80f35f6ad17}, !- Schedule Type Limits Name
  Through: 12/31,                         !- Field 1
  For: AllDays,                           !- Field 2
  Until: 24:00,                           !- Field 3
  120.;                                   !- Field 4

OS:ScheduleTypeLimits,
  {d3c5e34a-6fde-440d-bed7-5b65345d9bef}, !- Handle
  {2c77b521-2a00-4c2b-a732-e557709e9175}; !- Name

OS:ScheduleTypeLimits,
  {9eb25a54-9e4a-45c5-a918-a80f35f6ad17}, !- Handle
  ActivityLevel,                          !- Name
  0,                                      !- Lower Limit Value {BasedOnField A4}
  ,                                       !- Upper Limit Value {BasedOnField A4}
  Continuous,                             !- Numeric Type
  ActivityLevel;                          !- Unit Type

OS:Schedule:Compact,
  {8218ac47-b7ec-416e-8a12-a19e83c01645}, !- Handle
  WORK_EFF_SCH,                           !- Name
  {f4797d9b-2d6e-4e7f-9040-a2eeeb9d7b70}, !- Schedule Type Limits Name
  Through: 12/31,                         !- Field 1
  For: AllDays,                           !- Field 2
  Until: 24:00,                           !- Field 3
  0.0;                                    !- Field 4

OS:Surface,
  {e75da7ff-176c-4860-8346-527e1ad7c21b}, !- Handle
  Lobby_Flr_1_Floor_2,                    !- Name
  Floor,                                  !- Surface Type
  ,                                       !- Construction Name
  {9729522f-3e67-44fd-ba42-f2dfa1d6fd54}, !- Space Name
  Surface,                                !- Outside Boundary Condition
  {1552e9e5-1321-4853-9656-f3f82eaf576f}, !- Outside Boundary Condition Object
  NoSun,                                  !- Sun Exposure
  NoWind,                                 !- Wind Exposure
  ,                                       !- View Factor to Ground
  ,                                       !- Number of Vertices
  81.991, 22.86, 0,                       !- X,Y,Z Vertex 1 {m}
  81.991, 5.791, 0,                       !- X,Y,Z Vertex 2 {m}
  53.95, 5.791, 0,                        !- X,Y,Z Vertex 3 {m}
  53.95, 12.497, 0,                       !- X,Y,Z Vertex 4 {m}
  78.943, 12.497, 0,                      !- X,Y,Z Vertex 5 {m}
  78.943, 22.86, 0;                       !- X,Y,Z Vertex 6 {m}

OS:Connection,
  {29ec9387-d343-4811-a4fb-6089b7064a7d}, !- Handle
  {22be5082-4684-4ab9-9ffa-9869881759ed}, !- Name
  ,                                       !- Source Object
  11,                                     !- Outlet Port
  ,                                       !- Target Object
  2;                                      !- Inlet Port

OS:Space,
  {9729522f-3e67-44fd-ba42-f2dfa1d6fd54}, !- Handle
  Lobby_Flr_1,                            !- Name
  ,                                       !- Space Type Name
  ,                                       !- Default Construction Set Name
  ,                                       !- Default Schedule Set Name
  0,                                      !- Direction of Relative North {deg}
  0,                                      !- X Origin {m}
  0,                                      !- Y Origin {m}
  0,                                      !- Z Origin {m}
  ,                                       !- Building Story Name
  ,                                       !- Thermal Zone Name
  Yes;                                    !- Part of Total Floor Area

OS:Surface,
  {576e7e2f-4392-4bd1-8a79-b07f4eaa7ab9}, !- Handle
  Room_2_Flr_6_Wall_East,                 !- Name
  Wall,                                   !- Surface Type
  ,                                       !- Construction Name
  {0876245e-2114-48a5-bc47-3641589c67cf}, !- Space Name
  Adiabatic,                              !- Outside Boundary Condition
  ,                                       !- Outside Boundary Condition Object
  NoSun,                                  !- Sun Exposure
  NoWind,                                 !- Wind Exposure
  ,                                       !- View Factor to Ground
  ,                                       !- Number of Vertices
  4.572, 14.326, 19.2,                    !- X,Y,Z Vertex 1 {m}
  4.572, 14.326, 16.152,                  !- X,Y,Z Vertex 2 {m}
  4.572, 22.86, 16.152,                   !- X,Y,Z Vertex 3 {m}
  4.572, 22.86, 19.2;                     !- X,Y,Z Vertex 4 {m}

OS:Connection,
  {bc625ba4-78e0-4461-b352-499b6eea061b}, !- Handle
  {834ab286-5cd7-4934-9a93-5fb4a701cd5b}, !- Name
  ,                                       !- Source Object
  11,                                     !- Outlet Port
  ,                                       !- Target Object
  2;                                      !- Inlet Port

OS:Space,
  {0876245e-2114-48a5-bc47-3641589c67cf}, !- Handle
  Room_2_Flr_6,                           !- Name
  ,                                       !- Space Type Name
  ,                                       !- Default Construction Set Name
  ,                                       !- Default Schedule Set Name
  0,                                      !- Direction of Relative North {deg}
  0,                                      !- X Origin {m}
  0,                                      !- Y Origin {m}
  0,                                      !- Z Origin {m}
  ,                                       !- Building Story Name
  ,                                       !- Thermal Zone Name
  Yes;                                    !- Part of Total Floor Area

OS:Surface,
  {031a902d-c6a0-40ca-9145-fe8ecd218fb2}, !- Handle
  Kitchen_Flr_6_Wall_2_West,              !- Name
  Wall,                                   !- Surface Type
  ,                                       !- Construction Name
  {6eb0e3ec-cf12-4336-a572-9ae482a6e322}, !- Space Name
  Surface,                                !- Outside Boundary Condition
  {1a4d7b44-1b26-4f53-b5cf-7c8f32a83943}, !- Outside Boundary Condition Object
  NoSun,                                  !- Sun Exposure
  NoWind,                                 !- Wind Exposure
  ,                                       !- View Factor to Ground
  ,                                       !- Number of Vertices
  79.553, 22.86, 19.2,                    !- X,Y,Z Vertex 1 {m}
  79.553, 22.86, 16.152,                  !- X,Y,Z Vertex 2 {m}
  79.553, 12.497, 16.152,                 !- X,Y,Z Vertex 3 {m}
  79.553, 12.497, 19.2;                   !- X,Y,Z Vertex 4 {m}

OS:Connection,
  {2bc90676-e313-46bc-9391-d4d4fe3b7f7c}, !- Handle
  {b96bfcb3-5ffc-4faa-b220-c89917a6071f}, !- Name
  ,                                       !- Source Object
  11,                                     !- Outlet Port
  ,                                       !- Target Object
  2;                                      !- Inlet Port

OS:Space,
  {6eb0e3ec-cf12-4336-a572-9ae482a6e322}, !- Handle
  Kitchen_Flr_6,                          !- Name
  ,                                       !- Space Type Name
  ,                                       !- Default Construction Set Name
  ,                                       !- Default Schedule Set Name
  0,                                      !- Direction of Relative North {deg}
  0,                                      !- X Origin {m}
  0,                                      !- Y Origin {m}
  0,                                      !- Z Origin {m}
  ,                                       !- Building Story Name
  ,                                       !- Thermal Zone Name
  Yes;                                    !- Part of Total Floor Area

OS:Schedule:Compact,
  {c02c0c9b-0465-482f-9e6c-31c201a716aa}, !- Handle
  Kitchen_HTGSETP_SCH,                    !- Name
  {a30dc0b7-ec72-41e5-8349-b95339c27043}, !- Schedule Type Limits Name
  Through: 12/31,                         !- Field 1
  For: AllDays,                           !- Field 2
  Until: 07:00,                           !- Field 3
  16,                                     !- Field 4
  Until: 24:00,                           !- Field 5
  19;                                     !- Field 6

OS:Schedule:Compact,
  {a672f9db-61aa-4075-90ae-b4246d9ca709}, !- Handle
  Kitchen_CLGSETP_SCH,                    !- Name
  {a30dc0b7-ec72-41e5-8349-b95339c27043}, !- Schedule Type Limits Name
  Through: 12/31,                         !- Field 1
  For: AllDays,                           !- Field 2
  Until: 07:00,                           !- Field 3
  30,                                     !- Field 4
  Until: 24:00,                           !- Field 5
  26;                                     !- Field 6

OS:SubSurface,
  {e41762ce-ac31-49c3-8b6b-bf509af3139f}, !- Handle
  Corridor_Flr_6_Wall_2_South_Window,     !- Name
  FixedWindow,                            !- Sub Surface Type
  ,                                       !- Construction Name
  {02fa6170-35a0-495c-84a6-948d593d7fe2}, !- Surface Name
  ,                                       !- Outside Boundary Condition Object
  ,                                       !- View Factor to Ground
  ,                                       !- Shading Control Name
  ,                                       !- Frame and Divider Name
  1,                                      !- Multiplier
  ,                                       !- Number of Vertices
  66.416, 5.791, 18.484,                  !- X,Y,Z Vertex 1 {m}
  66.416, 5.791, 17.264,                  !- X,Y,Z Vertex 2 {m}
  80.498, 5.791, 17.264,                  !- X,Y,Z Vertex 3 {m}
  80.498, 5.791, 18.484;                  !- X,Y,Z Vertex 4 {m}

OS:Surface,
  {02fa6170-35a0-495c-84a6-948d593d7fe2}, !- Handle
  Corridor_Flr_6_Wall_2_South,            !- Name
  Wall,                                   !- Surface Type
  ,                                       !- Construction Name
  {b7c24b2e-16ab-463a-ab8a-6b360ce66310}, !- Space Name
  Outdoors,                               !- Outside Boundary Condition
  ,                                       !- Outside Boundary Condition Object
  SunExposed,                             !- Sun Exposure
  WindExposed,                            !- Wind Exposure
  ,                                       !- View Factor to Ground
  ,                                       !- Number of Vertices
  64.922, 5.791, 19.2,                    !- X,Y,Z Vertex 1 {m}
  64.922, 5.791, 16.152,                  !- X,Y,Z Vertex 2 {m}
  81.991, 5.791, 16.152,                  !- X,Y,Z Vertex 3 {m}
  81.991, 5.791, 19.2;                    !- X,Y,Z Vertex 4 {m}

OS:Connection,
  {7cd9799d-5919-42c2-8b55-354e157acacb}, !- Handle
  {b9c1cf3e-f29c-401e-a1c5-5866169589e2}, !- Name
  ,                                       !- Source Object
  11,                                     !- Outlet Port
  ,                                       !- Target Object
  2;                                      !- Inlet Port

OS:Space,
  {b7c24b2e-16ab-463a-ab8a-6b360ce66310}, !- Handle
  Corridor_Flr_6,                         !- Name
  ,                                       !- Space Type Name
  ,                                       !- Default Construction Set Name
  ,                                       !- Default Schedule Set Name
  0,                                      !- Direction of Relative North {deg}
  0,                                      !- X Origin {m}
  0,                                      !- Y Origin {m}
  0,                                      !- Z Origin {m}
  ,                                       !- Building Story Name
  ,                                       !- Thermal Zone Name
  Yes;                                    !- Part of Total Floor Area

OS:Schedule:Compact,
  {8a441052-2789-45d4-a8c9-90e793f92b93}, !- Handle
  Corr_HTGSETP_SCH,                       !- Name
  {a30dc0b7-ec72-41e5-8349-b95339c27043}, !- Schedule Type Limits Name
  Through: 12/31,                         !- Field 1
  For: AllDays,                           !- Field 2
  Until: 24:00,                           !- Field 3
  16;                                     !- Field 4

OS:Schedule:Compact,
  {e9eede01-ef19-4c82-a7d5-e5b62d72c8ff}, !- Handle
  Corr_CLGSETP_SCH,                       !- Name
  {a30dc0b7-ec72-41e5-8349-b95339c27043}, !- Schedule Type Limits Name
  Through: 12/31,                         !- Field 1
  For: AllDays,                           !- Field 2
  Until: 24:00,                           !- Field 3
  30;                                     !- Field 4

OS:Connection,
  {7700f951-1613-4b47-b0a1-9393130fea01}, !- Handle
  {bc460e38-34ca-4051-b628-672128f634a1}, !- Name
  ,                                       !- Source Object
  11,                                     !- Outlet Port
  ,                                       !- Target Object
  2;                                      !- Inlet Port

OS:Space,
  {4cc47b56-fc37-418c-9ef3-f631924d73b1}, !- Handle
  Room_1_Flr_3,                           !- Name
  ,                                       !- Space Type Name
  ,                                       !- Default Construction Set Name
  ,                                       !- Default Schedule Set Name
  0,                                      !- Direction of Relative North {deg}
  0,                                      !- X Origin {m}
  0,                                      !- Y Origin {m}
  0,                                      !- Z Origin {m}