
OS:Version,
<<<<<<< HEAD
  {f22e51f9-2b54-4b32-9f5f-408262a9c1b3}, !- Handle
  1.8.0;                                  !- Version Identifier

OS:Site,
  {fce409b1-7f3e-4dd7-8d02-295ef55e5a15}, !- Handle
  USA CA-LOS ANGELES,                     !- Name
  33.92,                                  !- Latitude {deg}
  -118.4,                                 !- Longitude {deg}
  -8,                                     !- Time Zone {hr}
  32,                                     !- Elevation {m}
  City;                                   !- Terrain

OS:SimulationControl,
  {240e0e8a-36a8-4a25-819f-d6ad773146f0}, !- Handle
=======
  {b19f5da1-09ae-4fca-a0f5-2a049051a492}, !- Handle
  1.7.0;                                  !- Version Identifier

OS:Site,
  {d35b6d87-a53b-45dc-a4b3-c8a0c6320df4}, !- Handle
  USA MD-BALTIMORE,                       !- Name
  39.17,                                  !- Latitude {deg}
  -76.67,                                 !- Longitude {deg}
  -5,                                     !- Time Zone {hr}
  47,                                     !- Elevation {m}
  City;                                   !- Terrain

OS:SimulationControl,
  {716a7838-ba9d-4b97-a5f6-e8ad1ebf9aba}, !- Handle
>>>>>>> 39c6398ee0c2ae9532329dd78eff86d62479c610
  Yes,                                    !- Do Zone Sizing Calculation
  Yes,                                    !- Do System Sizing Calculation
  Yes,                                    !- Do Plant Sizing Calculation
  No,                                     !- Run Simulation for Sizing Periods
  Yes,                                    !- Run Simulation for Weather File Run Periods
  0.04,                                   !- Loads Convergence Tolerance Value
  0.2,                                    !- Temperature Convergence Tolerance Value {deltaC}
  FullInteriorAndExterior,                !- Solar Distribution
  25,                                     !- Maximum Number of Warmup Days
  6;                                      !- Minimum Number of Warmup Days

OS:Surface,
<<<<<<< HEAD
  {96537be3-08c0-4277-bbf3-da524e26a86e}, !- Handle
  W_RearStorageFlr4_5_0_0,                !- Name
  Wall,                                   !- Surface Type
  ,                                       !- Construction Name
  {8815128a-3529-4c3a-8c57-1d70028f6a51}, !- Space Name
=======
  {1c249622-dc61-46a8-9af7-15cfc7030c6a}, !- Handle
  S_EmployeeLoungeFlr1_0_0_0,             !- Name
  Floor,                                  !- Surface Type
  ,                                       !- Construction Name
  {b40b11be-718b-4d28-87c4-1e8da99dcc08}, !- Space Name
  Ground,                                 !- Outside Boundary Condition
  ,                                       !- Outside Boundary Condition Object
  NoSun,                                  !- Sun Exposure
  NoWind,                                 !- Wind Exposure
  ,                                       !- View Factor to Ground
  ,                                       !- Number of Vertices
  44.5495, 18.3374, 0,                    !- X,Y,Z Vertex 1 {m}
  44.5495, 10.1078, 0,                    !- X,Y,Z Vertex 2 {m}
  40.5871, 10.1078, 0,                    !- X,Y,Z Vertex 3 {m}
  40.5871, 18.3374, 0;                    !- X,Y,Z Vertex 4 {m}

OS:Connection,
  {23580a15-2a66-4d53-ba5b-59f8e3cdcd0b}, !- Handle
  {b3608e58-298b-4c5a-abbc-2be6caf2a53e}, !- Name
  ,                                       !- Source Object
  11,                                     !- Outlet Port
  ,                                       !- Target Object
  2;                                      !- Inlet Port

OS:Space,
  {b40b11be-718b-4d28-87c4-1e8da99dcc08}, !- Handle
  EmployeeLoungeFlr1,                     !- Name
  ,                                       !- Space Type Name
  ,                                       !- Default Construction Set Name
  ,                                       !- Default Schedule Set Name
  0,                                      !- Direction of Relative North {deg}
  0,                                      !- X Origin {m}
  0,                                      !- Y Origin {m}
  0,                                      !- Z Origin {m}
  ,                                       !- Building Story Name
  ,                                       !- Thermal Zone Name
  Yes;                                    !- Part of Total Floor Area

OS:SubSurface,
  {d3d2c100-8d40-48b4-9d7a-216b797a958b}, !- Handle
  W_GuestRoom219_3_0_0_0_0,               !- Name
  FixedWindow,                            !- Sub Surface Type
  ,                                       !- Construction Name
  {ca8b3696-2ec5-4b52-b122-82aa7839ca2d}, !- Surface Name
  ,                                       !- Outside Boundary Condition Object
  ,                                       !- View Factor to Ground
  ,                                       !- Shading Control Name
  ,                                       !- Frame and Divider Name
  1,                                      !- Multiplier
  ,                                       !- Number of Vertices
  31.251, 18.3374, 5.4464,                !- X,Y,Z Vertex 1 {m}
  31.251, 18.3374, 4.0024,                !- X,Y,Z Vertex 2 {m}
  30.111, 18.3374, 4.0024,                !- X,Y,Z Vertex 3 {m}
  30.111, 18.3374, 5.4464;                !- X,Y,Z Vertex 4 {m}

OS:Surface,
  {ca8b3696-2ec5-4b52-b122-82aa7839ca2d}, !- Handle
  W_GuestRoom219_3_0_0,                   !- Name
  Wall,                                   !- Surface Type
  ,                                       !- Construction Name
  {8f166813-9e24-4dec-be7e-cad81ed13122}, !- Space Name
>>>>>>> 39c6398ee0c2ae9532329dd78eff86d62479c610
  Outdoors,                               !- Outside Boundary Condition
  ,                                       !- Outside Boundary Condition Object
  SunExposed,                             !- Sun Exposure
  WindExposed,                            !- Wind Exposure
  ,                                       !- View Factor to Ground
  ,                                       !- Number of Vertices
<<<<<<< HEAD
  52.4743, 0.0488, 11.5824,               !- X,Y,Z Vertex 1 {m}
  52.4743, 0.0488, 8.8392,                !- X,Y,Z Vertex 2 {m}
  54.9133, 0.0488, 8.8392,                !- X,Y,Z Vertex 3 {m}
  54.9133, 0.0488, 11.5824;               !- X,Y,Z Vertex 4 {m}

OS:Space,
  {8815128a-3529-4c3a-8c57-1d70028f6a51}, !- Handle
  RearStorageFlr4,                        !- Name
=======
  32.6623, 18.3374, 6.096,                !- X,Y,Z Vertex 1 {m}
  32.6623, 18.3374, 3.3528,               !- X,Y,Z Vertex 2 {m}
  28.6999, 18.3374, 3.3528,               !- X,Y,Z Vertex 3 {m}
  28.6999, 18.3374, 6.096;                !- X,Y,Z Vertex 4 {m}

OS:Connection,
  {3d63a500-b540-400e-8bc2-5958d794ba05}, !- Handle
  {5d4dc15b-6114-46fd-99b0-771a41725ac2}, !- Name
  ,                                       !- Source Object
  11,                                     !- Outlet Port
  ,                                       !- Target Object
  2;                                      !- Inlet Port

OS:Space,
  {8f166813-9e24-4dec-be7e-cad81ed13122}, !- Handle
  GuestRoom219,                           !- Name
>>>>>>> 39c6398ee0c2ae9532329dd78eff86d62479c610
  ,                                       !- Space Type Name
  ,                                       !- Default Construction Set Name
  ,                                       !- Default Schedule Set Name
  0,                                      !- Direction of Relative North {deg}
  0,                                      !- X Origin {m}
  0,                                      !- Y Origin {m}
  0,                                      !- Z Origin {m}
  ,                                       !- Building Story Name
  ,                                       !- Thermal Zone Name
  Yes;                                    !- Part of Total Floor Area

<<<<<<< HEAD
OS:Space,
  {0bb6d075-384e-47be-8e30-7167abba153f}, !- Handle
  GuestRoom220_223,                       !- Name
=======
OS:Connection,
  {15d3b146-29fd-4a0a-9203-f8ca68d3d222}, !- Handle
  {f6a085f8-cdbf-4586-bd38-50684d09cfae}, !- Name
  ,                                       !- Source Object
  11,                                     !- Outlet Port
  ,                                       !- Target Object
  2;                                      !- Inlet Port

OS:Space,
  {c5ba339f-19f1-4e2c-b741-42f4a897b6de}, !- Handle
  GuestRoom413,                           !- Name
>>>>>>> 39c6398ee0c2ae9532329dd78eff86d62479c610
  ,                                       !- Space Type Name
  ,                                       !- Default Construction Set Name
  ,                                       !- Default Schedule Set Name
  0,                                      !- Direction of Relative North {deg}
  0,                                      !- X Origin {m}
  0,                                      !- Y Origin {m}
  0,                                      !- Z Origin {m}
  ,                                       !- Building Story Name
  ,                                       !- Thermal Zone Name
  Yes;                                    !- Part of Total Floor Area

OS:Surface,
<<<<<<< HEAD
  {d6c85127-7de0-4bfd-a5a5-2fd45b3149e5}, !- Handle
  P_FrontStairsFlr2_10113_0_10073,        !- Name
  Wall,                                   !- Surface Type
  ,                                       !- Construction Name
  {3e57797b-d34d-4c94-a6d2-020e79914d4b}, !- Space Name
  Surface,                                !- Outside Boundary Condition
  {5c63b08e-c636-49e1-86a3-db7ea9ed365d}, !- Outside Boundary Condition Object
  NoSun,                                  !- Sun Exposure
  NoWind,                                 !- Wind Exposure
  ,                                       !- View Factor to Ground
  ,                                       !- Number of Vertices
  0.0487, 10.1078, 6.096,                 !- X,Y,Z Vertex 1 {m}
  0.0487, 10.1078, 3.3528,                !- X,Y,Z Vertex 2 {m}
  2.4871, 10.1078, 3.3528,                !- X,Y,Z Vertex 3 {m}
  2.4871, 10.1078, 6.096;                 !- X,Y,Z Vertex 4 {m}

OS:Space,
  {3e57797b-d34d-4c94-a6d2-020e79914d4b}, !- Handle
  FrontStairsFlr2,                        !- Name
=======
  {32b1b516-68cf-455d-932c-80b0ce0fcf89}, !- Handle
  W_CorridorFlr1_10_0_0,                  !- Name
  Wall,                                   !- Surface Type
  ,                                       !- Construction Name
  {4fef5bf3-b03a-4b91-b0e3-fd3c7a5e420a}, !- Space Name
  Outdoors,                               !- Outside Boundary Condition
  ,                                       !- Outside Boundary Condition Object
  SunExposed,                             !- Sun Exposure
  WindExposed,                            !- Wind Exposure
  ,                                       !- View Factor to Ground
  ,                                       !- Number of Vertices
  26.8711, 18.3374, 3.3528,               !- X,Y,Z Vertex 1 {m}
  26.8711, 18.3374, 0,                    !- X,Y,Z Vertex 2 {m}
  23.8231, 18.3374, 0,                    !- X,Y,Z Vertex 3 {m}
  23.8231, 18.3374, 3.3528;               !- X,Y,Z Vertex 4 {m}

OS:Connection,
  {88cce340-a9d1-487a-9913-ecb3b1baf197}, !- Handle
  {69859e44-504d-480b-8620-3c38145f7270}, !- Name
  ,                                       !- Source Object
  11,                                     !- Outlet Port
  ,                                       !- Target Object
  2;                                      !- Inlet Port

OS:Space,
  {4fef5bf3-b03a-4b91-b0e3-fd3c7a5e420a}, !- Handle
  CorridorFlr1,                           !- Name
>>>>>>> 39c6398ee0c2ae9532329dd78eff86d62479c610
  ,                                       !- Space Type Name
  ,                                       !- Default Construction Set Name
  ,                                       !- Default Schedule Set Name
  0,                                      !- Direction of Relative North {deg}
  0,                                      !- X Origin {m}
  0,                                      !- Y Origin {m}
  0,                                      !- Z Origin {m}
  ,                                       !- Building Story Name
  ,                                       !- Thermal Zone Name
  Yes;                                    !- Part of Total Floor Area

OS:Surface,
<<<<<<< HEAD
  {2a7a1d3e-20f8-42e9-8410-4f7f346c0735}, !- Handle
  AtticFloor_GR415_418_1_0_0,             !- Name
  Floor,                                  !- Surface Type
  ,                                       !- Construction Name
  {5c15b500-bc79-46ba-9b40-e0b151f262e9}, !- Space Name
  Surface,                                !- Outside Boundary Condition
  {ffb1dfad-352d-4503-81e0-11cd5d3290ae}, !- Outside Boundary Condition Object
  NoSun,                                  !- Sun Exposure
  NoWind,                                 !- Wind Exposure
  ,                                       !- View Factor to Ground
  ,                                       !- Number of Vertices
  62.418006, -3.343842, 11.5824,          !- X,Y,Z Vertex 1 {m}
  62.418006, -11.573442, 11.5824,         !- X,Y,Z Vertex 2 {m}
  46.568406, -11.573442, 11.5824,         !- X,Y,Z Vertex 3 {m}
  46.568406, -3.343842, 11.5824;          !- X,Y,Z Vertex 4 {m}

OS:Space,
  {5c15b500-bc79-46ba-9b40-e0b151f262e9}, !- Handle
  Attic,                                  !- Name
  ,                                       !- Space Type Name
  ,                                       !- Default Construction Set Name
  ,                                       !- Default Schedule Set Name
  0,                                      !- Direction of Relative North {deg}
  -13.906106,                             !- X Origin {m}
  21.681242,                              !- Y Origin {m}
  0,                                      !- Z Origin {m}
  ,                                       !- Building Story Name
  ,                                       !- Thermal Zone Name
  No;                                     !- Part of Total Floor Area

OS:Space,
  {70b8cdb0-d40f-4d4d-a1e8-8ba667120efe}, !- Handle
  GuestRoom313,                           !- Name
=======
  {cb040246-9c1d-4a05-ab2f-d06d0b38e1d8}, !- Handle
  W_RearStairsFlr2_2_0_0,                 !- Name
  Wall,                                   !- Surface Type
  ,                                       !- Construction Name
  {87120d9d-9e96-4df1-9263-f82840d4170b}, !- Space Name
  Outdoors,                               !- Outside Boundary Condition
  ,                                       !- Outside Boundary Condition Object
  SunExposed,                             !- Sun Exposure
  WindExposed,                            !- Wind Exposure
  ,                                       !- View Factor to Ground
  ,                                       !- Number of Vertices
  54.9133, 10.1078, 6.096,                !- X,Y,Z Vertex 1 {m}
  54.9133, 10.1078, 3.3528,               !- X,Y,Z Vertex 2 {m}
  54.9133, 18.3374, 3.3528,               !- X,Y,Z Vertex 3 {m}
  54.9133, 18.3374, 6.096;                !- X,Y,Z Vertex 4 {m}

OS:Connection,
  {260e52b3-1433-4e13-b0fb-308580887780}, !- Handle
  {4a20fc1d-0f3a-4982-9e4f-81079d69a45c}, !- Name
  ,                                       !- Source Object
  11,                                     !- Outlet Port
  ,                                       !- Target Object
  2;                                      !- Inlet Port

OS:Space,
  {87120d9d-9e96-4df1-9263-f82840d4170b}, !- Handle
  RearStairsFlr2,                         !- Name
>>>>>>> 39c6398ee0c2ae9532329dd78eff86d62479c610
  ,                                       !- Space Type Name
  ,                                       !- Default Construction Set Name
  ,                                       !- Default Schedule Set Name
  0,                                      !- Direction of Relative North {deg}
  0,                                      !- X Origin {m}
  0,                                      !- Y Origin {m}
  0,                                      !- Z Origin {m}
  ,                                       !- Building Story Name
  ,                                       !- Thermal Zone Name
  Yes;                                    !- Part of Total Floor Area

OS:Surface,
<<<<<<< HEAD
  {1ca4360f-45a5-414a-ae1d-d6caaceced1b}, !- Handle
  R_GuestRoom420_423_1_0_0,               !- Name
  RoofCeiling,                            !- Surface Type
  ,                                       !- Construction Name
  {8c7b5c4a-f1f6-4cdf-b38b-62384412f162}, !- Space Name
  Surface,                                !- Outside Boundary Condition
  {86105f5b-3701-43e2-abf5-ac73a207cf2d}, !- Outside Boundary Condition Object
=======
  {8b9dc997-5326-4eef-9db8-f325289c88d4}, !- Handle
  R_ElevatorCoreFlr4_1_0_0,               !- Name
  RoofCeiling,                            !- Surface Type
  ,                                       !- Construction Name
  {b7c815d1-dc16-4b93-99d7-00f037dc0c47}, !- Space Name
  Surface,                                !- Outside Boundary Condition
  {236d5e0d-d545-488e-b943-dafcbe30ca01}, !- Outside Boundary Condition Object
>>>>>>> 39c6398ee0c2ae9532329dd78eff86d62479c610
  NoSun,                                  !- Sun Exposure
  NoWind,                                 !- Wind Exposure
  ,                                       !- View Factor to Ground
  ,                                       !- Number of Vertices
<<<<<<< HEAD
  23.8231, 10.1078, 11.5824,              !- X,Y,Z Vertex 1 {m}
  23.8231, 18.3374, 11.5824,              !- X,Y,Z Vertex 2 {m}
  7.9735, 18.3374, 11.5824,               !- X,Y,Z Vertex 3 {m}
  7.9735, 10.1078, 11.5824;               !- X,Y,Z Vertex 4 {m}

OS:Space,
  {8c7b5c4a-f1f6-4cdf-b38b-62384412f162}, !- Handle
  GuestRoom420_423,                       !- Name
=======
  28.6999, 10.1078, 11.5824,              !- X,Y,Z Vertex 1 {m}
  28.6999, 18.3374, 11.5824,              !- X,Y,Z Vertex 2 {m}
  26.8711, 18.3374, 11.5824,              !- X,Y,Z Vertex 3 {m}
  26.8711, 10.1078, 11.5824;              !- X,Y,Z Vertex 4 {m}

OS:Connection,
  {ec44f6d2-7ff5-4f99-9353-498fcfcda5d3}, !- Handle
  {37b1ddc7-623c-4e50-b295-478573c24244}, !- Name
  ,                                       !- Source Object
  11,                                     !- Outlet Port
  ,                                       !- Target Object
  2;                                      !- Inlet Port

OS:Space,
  {b7c815d1-dc16-4b93-99d7-00f037dc0c47}, !- Handle
  ElevatorCoreFlr4,                       !- Name
>>>>>>> 39c6398ee0c2ae9532329dd78eff86d62479c610
  ,                                       !- Space Type Name
  ,                                       !- Default Construction Set Name
  ,                                       !- Default Schedule Set Name
  0,                                      !- Direction of Relative North {deg}
  0,                                      !- X Origin {m}
  0,                                      !- Y Origin {m}
  0,                                      !- Z Origin {m}
  ,                                       !- Building Story Name
  ,                                       !- Thermal Zone Name
  Yes;                                    !- Part of Total Floor Area

<<<<<<< HEAD
OS:Space,
  {2d4eea1b-7394-4a42-a9a7-adf87886759b}, !- Handle
  GuestRoom309_312,                       !- Name
=======
OS:Surface,
  {17bce6ef-3848-4558-8bb0-8c2e7af9a70b}, !- Handle
  P_GuestRoom202_205_10126_0_10083,       !- Name
  Wall,                                   !- Surface Type
  ,                                       !- Construction Name
  {0ca3d235-a9c0-4f06-bbf7-0e3ab1d3cb4d}, !- Space Name
  Surface,                                !- Outside Boundary Condition
  {7c6e0155-6236-4c6c-b1f5-ae7e1d4e7224}, !- Outside Boundary Condition Object
  NoSun,                                  !- Sun Exposure
  NoWind,                                 !- Wind Exposure
  ,                                       !- View Factor to Ground
  ,                                       !- Number of Vertices
  4.0111, 8.279, 6.096,                   !- X,Y,Z Vertex 1 {m}
  4.0111, 8.279, 3.3528,                  !- X,Y,Z Vertex 2 {m}
  4.0111, 0.0488, 3.3528,                 !- X,Y,Z Vertex 3 {m}
  4.0111, 0.0488, 6.096;                  !- X,Y,Z Vertex 4 {m}

OS:Connection,
  {71e67cf1-5dbe-4e0c-b6e1-936ef8ee0ffa}, !- Handle
  {f2271016-1772-440b-a9c3-0728b069c3a1}, !- Name
  ,                                       !- Source Object
  11,                                     !- Outlet Port
  ,                                       !- Target Object
  2;                                      !- Inlet Port

OS:Space,
  {0ca3d235-a9c0-4f06-bbf7-0e3ab1d3cb4d}, !- Handle
  GuestRoom202_205,                       !- Name
>>>>>>> 39c6398ee0c2ae9532329dd78eff86d62479c610
  ,                                       !- Space Type Name
  ,                                       !- Default Construction Set Name
  ,                                       !- Default Schedule Set Name
  0,                                      !- Direction of Relative North {deg}
  0,                                      !- X Origin {m}
  0,                                      !- Y Origin {m}
  0,                                      !- Z Origin {m}
  ,                                       !- Building Story Name
  ,                                       !- Thermal Zone Name
  Yes;                                    !- Part of Total Floor Area

<<<<<<< HEAD
OS:Space,
  {1ab96ac7-935e-4ea6-8181-5cbdb6ca9914}, !- Handle
  EmployeeLoungeFlr1,                     !- Name
=======
OS:ShadowCalculation,
  {75d40881-ac53-40ad-90a0-f0d7f3fbb9da}, !- Handle
  15000,                                  !- Calculation Frequency
  15000;                                  !- Maximum Figures in Shadow Overlap Calculations

OS:SubSurface,
  {37f568f3-c587-4add-a2ca-8338511a90b3}, !- Handle
  W_EmployeeLoungeFlr1_3_0_0_0_0,         !- Name
  FixedWindow,                            !- Sub Surface Type
  ,                                       !- Construction Name
  {21176efd-7810-4e11-a5f4-8e72cbf8e14d}, !- Surface Name
  ,                                       !- Outside Boundary Condition Object
  ,                                       !- View Factor to Ground
  ,                                       !- Shading Control Name
  ,                                       !- Frame and Divider Name
  1,                                      !- Multiplier
  ,                                       !- Number of Vertices
  43.138, 18.3374, 2.3984,                !- X,Y,Z Vertex 1 {m}
  43.138, 18.3374, 0.9544,                !- X,Y,Z Vertex 2 {m}
  41.999, 18.3374, 0.9544,                !- X,Y,Z Vertex 3 {m}
  41.999, 18.3374, 2.3984;                !- X,Y,Z Vertex 4 {m}

OS:Surface,
  {21176efd-7810-4e11-a5f4-8e72cbf8e14d}, !- Handle
  W_EmployeeLoungeFlr1_3_0_0,             !- Name
  Wall,                                   !- Surface Type
  ,                                       !- Construction Name
  {b40b11be-718b-4d28-87c4-1e8da99dcc08}, !- Space Name
  Outdoors,                               !- Outside Boundary Condition
  ,                                       !- Outside Boundary Condition Object
  SunExposed,                             !- Sun Exposure
  WindExposed,                            !- Wind Exposure
  ,                                       !- View Factor to Ground
  ,                                       !- Number of Vertices
  44.5495, 18.3374, 3.3528,               !- X,Y,Z Vertex 1 {m}
  44.5495, 18.3374, 0,                    !- X,Y,Z Vertex 2 {m}
  40.5871, 18.3374, 0,                    !- X,Y,Z Vertex 3 {m}
  40.5871, 18.3374, 3.3528;               !- X,Y,Z Vertex 4 {m}

OS:SubSurface,
  {370cbcc7-2b52-4a98-a7d3-d77a6808f912}, !- Handle
  W_GuestRoom302_305_5_0_0_0_1,           !- Name
  FixedWindow,                            !- Sub Surface Type
  ,                                       !- Construction Name
  {560d72d6-387d-4447-901d-f0dc40d4e80e}, !- Surface Name
  ,                                       !- Outside Boundary Condition Object
  ,                                       !- View Factor to Ground
  ,                                       !- Shading Control Name
  ,                                       !- Frame and Divider Name
  1,                                      !- Multiplier
  ,                                       !- Number of Vertices
  9.385, 0.0488, 8.1896,                  !- X,Y,Z Vertex 1 {m}
  9.385, 0.0488, 6.7456,                  !- X,Y,Z Vertex 2 {m}
  10.524, 0.0488, 6.7456,                 !- X,Y,Z Vertex 3 {m}
  10.524, 0.0488, 8.1896;                 !- X,Y,Z Vertex 4 {m}

OS:Surface,
  {560d72d6-387d-4447-901d-f0dc40d4e80e}, !- Handle
  W_GuestRoom302_305_5_0_0,               !- Name
  Wall,                                   !- Surface Type
  ,                                       !- Construction Name
  {1e455b4f-a2db-41e6-909e-8472ad337c90}, !- Space Name
  Outdoors,                               !- Outside Boundary Condition
  ,                                       !- Outside Boundary Condition Object
  SunExposed,                             !- Sun Exposure
  WindExposed,                            !- Wind Exposure
  ,                                       !- View Factor to Ground
  ,                                       !- Number of Vertices
  4.0111, 0.0488, 8.8392,                 !- X,Y,Z Vertex 1 {m}
  4.0111, 0.0488, 6.096,                  !- X,Y,Z Vertex 2 {m}
  19.8607, 0.0488, 6.096,                 !- X,Y,Z Vertex 3 {m}
  19.8607, 0.0488, 8.8392;                !- X,Y,Z Vertex 4 {m}

OS:Connection,
  {eee52b56-2bc3-4cf7-b38c-d9349775424f}, !- Handle
  {bd243535-e2dc-4171-b505-57f8b79c69b4}, !- Name
  ,                                       !- Source Object
  11,                                     !- Outlet Port
  ,                                       !- Target Object
  2;                                      !- Inlet Port

OS:Space,
  {1e455b4f-a2db-41e6-909e-8472ad337c90}, !- Handle
  GuestRoom302_305,                       !- Name
>>>>>>> 39c6398ee0c2ae9532329dd78eff86d62479c610
  ,                                       !- Space Type Name
  ,                                       !- Default Construction Set Name
  ,                                       !- Default Schedule Set Name
  0,                                      !- Direction of Relative North {deg}
  0,                                      !- X Origin {m}
  0,                                      !- Y Origin {m}
  0,                                      !- Z Origin {m}
  ,                                       !- Building Story Name
  ,                                       !- Thermal Zone Name
  Yes;                                    !- Part of Total Floor Area

OS:Surface,
<<<<<<< HEAD
  {ef869c9a-095b-473f-a2fd-5e3bf8ba19f2}, !- Handle
  P_CorridorFlr2_18_0_0,                  !- Name
  Wall,                                   !- Surface Type
  ,                                       !- Construction Name
  {ad5af156-d31e-40da-bb34-484e2a1392c1}, !- Space Name
  Surface,                                !- Outside Boundary Condition
  {73a90a9a-36ae-41d2-978d-a08e8f968594}, !- Outside Boundary Condition Object
=======
  {1e24b05c-418d-4684-8ac6-2659d7825db6}, !- Handle
  P_CorridorFlr4_12_0_0,                  !- Name
  Wall,                                   !- Surface Type
  ,                                       !- Construction Name
  {bf0eecce-ee80-4ade-ad83-d76f41ce5bf6}, !- Space Name
  Surface,                                !- Outside Boundary Condition
  {bfd1f5ff-fa67-4b21-9dfe-7b0c612e858a}, !- Outside Boundary Condition Object
>>>>>>> 39c6398ee0c2ae9532329dd78eff86d62479c610
  NoSun,                                  !- Sun Exposure
  NoWind,                                 !- Wind Exposure
  ,                                       !- View Factor to Ground
  ,                                       !- Number of Vertices
<<<<<<< HEAD
  19.8607, 8.279, 6.096,                  !- X,Y,Z Vertex 1 {m}
  19.8607, 8.279, 3.3528,                 !- X,Y,Z Vertex 2 {m}
  32.6623, 8.279, 3.3528,                 !- X,Y,Z Vertex 3 {m}
  32.6623, 8.279, 6.096;                  !- X,Y,Z Vertex 4 {m}

OS:Space,
  {ad5af156-d31e-40da-bb34-484e2a1392c1}, !- Handle
  CorridorFlr2,                           !- Name
  ,                                       !- Space Type Name
  ,                                       !- Default Construction Set Name
  ,                                       !- Default Schedule Set Name
  0,                                      !- Direction of Relative North {deg}
  0,                                      !- X Origin {m}
  0,                                      !- Y Origin {m}
  0,                                      !- Z Origin {m}
  ,                                       !- Building Story Name
  ,                                       !- Thermal Zone Name
  Yes;                                    !- Part of Total Floor Area

OS:Space,
  {4d5db95c-a7f0-4621-8926-457c370d1fa5}, !- Handle
  GuestRoom413,                           !- Name
=======
  7.9735, 10.1078, 11.5824,               !- X,Y,Z Vertex 1 {m}
  7.9735, 10.1078, 8.8392,                !- X,Y,Z Vertex 2 {m}
  4.0111, 10.1078, 8.8392,                !- X,Y,Z Vertex 3 {m}
  4.0111, 10.1078, 11.5824;               !- X,Y,Z Vertex 4 {m}

OS:Connection,
  {829d2575-b525-40b6-93ab-81ce86c924e7}, !- Handle
  {eded7b14-34d6-413e-8257-949662890402}, !- Name
  ,                                       !- Source Object
  11,                                     !- Outlet Port
  ,                                       !- Target Object
  2;                                      !- Inlet Port

OS:Space,
  {bf0eecce-ee80-4ade-ad83-d76f41ce5bf6}, !- Handle