
OS:Version,
  {22ba3f6c-f80f-41e5-8a22-9e2c546bf251}, !- Handle
  1.5.0;                                  !- Version Identifier

OS:Site,
  {4401af15-c546-44f8-96c5-410b73437a27}, !- Handle
  USA IL-CHICAGO-OHARE,                   !- Name
  41.77,                                  !- Latitude {deg}
  -87.75,                                 !- Longitude {deg}
  -6,                                     !- Time Zone {hr}
  190,                                    !- Elevation {m}
  City;                                   !- Terrain

OS:SimulationControl,
  {2134cbc1-5433-4c8c-b90e-bc63b05f2cae}, !- Handle
  Yes,                                    !- Do Zone Sizing Calculation
  Yes,                                    !- Do System Sizing Calculation
  Yes,                                    !- Do Plant Sizing Calculation
  Yes,                                    !- Run Simulation for Sizing Periods
  No,                                     !- Run Simulation for Weather File Run Periods
  0.04,                                   !- Loads Convergence Tolerance Value
  0.2,                                    !- Temperature Convergence Tolerance Value {deltaC}
  FullInteriorAndExterior,                !- Solar Distribution
  25,                                     !- Maximum Number of Warmup Days
  6;                                      !- Minimum Number of Warmup Days

OS:Construction,
  {d24f1e89-cddb-4b47-9c0b-ae2ec431c1a6}, !- Handle
  INT-FLOOR-TOPSIDE,                      !- Name
  ,                                       !- Surface Rendering Name
  {b3c80cdc-2b06-42dd-be24-dc008b11a129}, !- Layer 1
  {535ec96f-d298-4dcf-8ba2-7f023ecf3749}; !- Layer 2

OS:Material,
  {b3c80cdc-2b06-42dd-be24-dc008b11a129}, !- Handle
  MAT-CC05 4 HW CONCRETE,                 !- Name
  Rough,                                  !- Roughness
  0.1016,                                 !- Thickness {m}
  1.311,                                  !- Conductivity {W/m-K}
  2240,                                   !- Density {kg/m3}
  836.8,                                  !- Specific Heat {J/kg-K}
  0.9,                                    !- Thermal Absorptance
  0.7,                                    !- Solar Absorptance
  0.7;                                    !- Visible Absorptance

OS:Material:NoMass,
  {535ec96f-d298-4dcf-8ba2-7f023ecf3749}, !- Handle
  CP02 CARPET PAD,                        !- Name
  VeryRough,                              !- Roughness
  0.2165,                                 !- Thermal Resistance {m2-K/W}
  0.9,                                    !- Thermal Absorptance
  0.7,                                    !- Solar Absorptance
  0.8;                                    !- Visible Absorptance

OS:Surface,
  {084d45e2-b21a-428c-96c2-ab7001d364ad}, !- Handle
  Perimeter_mid_ZN_4_Wall_North,          !- Name
  Wall,                                   !- Surface Type
  {e36f0e69-0dcd-4575-87ed-6a81ac714f3c}, !- Construction Name
  {fd517fa4-3c26-440a-aa97-3ace8c1c83b8}, !- Space Name
  Surface,                                !- Outside Boundary Condition
  {4de4d18e-cfa0-4a45-b7e2-061b3c5cc693}, !- Outside Boundary Condition Object
  NoSun,                                  !- Sun Exposure
  NoWind,                                 !- Wind Exposure
  ,                                       !- View Factor to Ground
  ,                                       !- Number of Vertices
  4.5732, 28.7006, 6.7056,                !- X,Y,Z Vertex 1 {m}
  4.5732, 28.7006, 3.9624,                !- X,Y,Z Vertex 2 {m}
  0, 33.2738, 3.9624,                     !- X,Y,Z Vertex 3 {m}
  0, 33.2738, 6.7056;                     !- X,Y,Z Vertex 4 {m}

OS:Construction,
  {e36f0e69-0dcd-4575-87ed-6a81ac714f3c}, !- Handle
  int-walls,                              !- Name
  ,                                       !- Surface Rendering Name
  {8680bdef-55b0-46cb-ae20-1ca186008971}, !- Layer 1
  {8680bdef-55b0-46cb-ae20-1ca186008971}; !- Layer 2

OS:Material,
  {8680bdef-55b0-46cb-ae20-1ca186008971}, !- Handle
  1/2IN Gypsum,                           !- Name
  Smooth,                                 !- Roughness
  0.0127,                                 !- Thickness {m}
  0.16,                                   !- Conductivity {W/m-K}
  784.9,                                  !- Density {kg/m3}
  830,                                    !- Specific Heat {J/kg-K}
  0.9,                                    !- Thermal Absorptance
  0.92,                                   !- Solar Absorptance
  0.92;                                   !- Visible Absorptance

OS:ThermalZone,
  {ca1e67b6-4bcb-4ed4-b8ec-f01173326252}, !- Handle
  Perimeter_mid_ZN_4 Thermal Zone,        !- Name
  1,                                      !- Multiplier
  ,                                       !- Ceiling Height {m}
  ,                                       !- Volume {m3}
  ,                                       !- Floor Area {m2}
  ,                                       !- Zone Inside Convection Algorithm
  ,                                       !- Zone Outside Convection Algorithm
  ,                                       !- Zone Conditioning Equipment List Name
  {94c14b54-684c-43b6-a447-7a86707fabc8}, !- Zone Air Inlet Port List
  {5bb26712-a731-45a9-bdb3-4f3a9a32dbe6}, !- Zone Air Exhaust Port List
  {3251a104-9178-462f-87a9-5bd4dc7a4421}, !- Zone Air Node Name
  ,                                       !- Zone Return Air Node Name
  ,                                       !- Primary Daylighting Control Name
  ,                                       !- Fraction of Zone Controlled by Primary Daylighting Control
  ,                                       !- Secondary Daylighting Control Name
  ,                                       !- Fraction of Zone Controlled by Secondary Daylighting Control
  ,                                       !- Illuminance Map Name
  ,                                       !- Group Rendering Name
  ,                                       !- Thermostat Name
  No;                                     !- Use Ideal Air Loads

OS:Node,
  {2c26b6c1-b190-415a-a658-32e49e54c0ae}, !- Handle
  {147044f1-36a2-4ae6-8f47-4fb1f5795d55}, !- Name
  {3251a104-9178-462f-87a9-5bd4dc7a4421}, !- Inlet Port
  ;                                       !- Outlet Port

OS:Connection,
  {3251a104-9178-462f-87a9-5bd4dc7a4421}, !- Handle
  {a34e1b20-5b85-4001-910e-e99c193c9e37}, !- Name
  {ca1e67b6-4bcb-4ed4-b8ec-f01173326252}, !- Source Object
  11,                                     !- Outlet Port
  {2c26b6c1-b190-415a-a658-32e49e54c0ae}, !- Target Object
  2;                                      !- Inlet Port

OS:PortList,
  {94c14b54-684c-43b6-a447-7a86707fabc8}, !- Handle
  {65183bb2-1f42-48f2-90bd-b10c4e03d654}, !- Name
  {ca1e67b6-4bcb-4ed4-b8ec-f01173326252}; !- HVAC Component

OS:PortList,
  {5bb26712-a731-45a9-bdb3-4f3a9a32dbe6}, !- Handle
  {f4da1ffd-4f90-48cf-9112-97527d69022f}, !- Name
  {ca1e67b6-4bcb-4ed4-b8ec-f01173326252}; !- HVAC Component

OS:Sizing:Zone,
  {74fb4f31-76c3-4e15-a74e-01999d0fbbc5}, !- Handle
  {ca1e67b6-4bcb-4ed4-b8ec-f01173326252}, !- Zone or ZoneList Name
  14,                                     !- Zone Cooling Design Supply Air Temperature {C}
  40,                                     !- Zone Heating Design Supply Air Temperature {C}
  0.0085,                                 !- Zone Cooling Design Supply Air Humidity Ratio {kg-H2O/kg-air}
  0.008,                                  !- Zone Heating Design Supply Air Humidity Ratio {kg-H2O/kg-air}
  ,                                       !- Zone Heating Sizing Factor
  ,                                       !- Zone Cooling Sizing Factor
  DesignDay,                              !- Cooling Design Air Flow Method
  ,                                       !- Cooling Design Air Flow Rate {m3/s}
  ,                                       !- Cooling Minimum Air Flow per Zone Floor Area {m3/s-m2}
  ,                                       !- Cooling Minimum Air Flow {m3/s}
  ,                                       !- Cooling Minimum Air Flow Fraction
  DesignDay,                              !- Heating Design Air Flow Method
  ,                                       !- Heating Design Air Flow Rate {m3/s}
  ,                                       !- Heating Maximum Air Flow per Zone Floor Area {m3/s-m2}
  ,                                       !- Heating Maximum Air Flow {m3/s}
  ,                                       !- Heating Maximum Air Flow Fraction
  ,                                       !- Design Zone Air Distribution Effectiveness in Cooling Mode
  ;                                       !- Design Zone Air Distribution Effectiveness in Heating Mode

OS:ZoneHVAC:EquipmentList,
  {a01e4027-a224-48f2-8675-d7375d20fae5}, !- Handle
  {8102a49f-389c-4623-9ab4-87e1af870053}, !- Name
  {ca1e67b6-4bcb-4ed4-b8ec-f01173326252}; !- Thermal Zone

OS:Space,
  {fd517fa4-3c26-440a-aa97-3ace8c1c83b8}, !- Handle
  Perimeter_mid_ZN_4,                     !- Name
  ,                                       !- Space Type Name
  ,                                       !- Default Construction Set Name
  ,                                       !- Default Schedule Set Name
  0,                                      !- Direction of Relative North {deg}
  0,                                      !- X Origin {m}
  0,                                      !- Y Origin {m}
  0,                                      !- Z Origin {m}
  ,                                       !- Building Story Name
  {ca1e67b6-4bcb-4ed4-b8ec-f01173326252}, !- Thermal Zone Name
  Yes;                                    !- Part of Total Floor Area

OS:Surface,
  {6fda72e7-e9a3-456f-99d8-861fd64ce491}, !- Handle
  Core_bot_ZN_5_Wall_South,               !- Name
  Wall,                                   !- Surface Type
  {e36f0e69-0dcd-4575-87ed-6a81ac714f3c}, !- Construction Name
  {0301d7f6-33a7-4967-9d2b-ab9b1cfbe5aa}, !- Space Name
  Surface,                                !- Outside Boundary Condition
  {850637cc-a8a1-4eba-b885-16d5d92d7986}, !- Outside Boundary Condition Object
  NoSun,                                  !- Sun Exposure
  NoWind,                                 !- Wind Exposure
  ,                                       !- View Factor to Ground
  ,                                       !- Number of Vertices
  4.5732, 4.5732, 2.7432,                 !- X,Y,Z Vertex 1 {m}
  4.5732, 4.5732, 0,                      !- X,Y,Z Vertex 2 {m}
  45.3375, 4.5732, 0,                     !- X,Y,Z Vertex 3 {m}
  45.3375, 4.5732, 2.7432;                !- X,Y,Z Vertex 4 {m}

OS:ThermalZone,
  {f4479f0a-f42d-4f5b-bdb4-546af61310a5}, !- Handle
  Core_bottom Thermal Zone,               !- Name
  1,                                      !- Multiplier
  ,                                       !- Ceiling Height {m}
  ,                                       !- Volume {m3}
  ,                                       !- Floor Area {m2}
  ,                                       !- Zone Inside Convection Algorithm
  ,                                       !- Zone Outside Convection Algorithm
  ,                                       !- Zone Conditioning Equipment List Name
  {d6074603-de52-4d1e-a2f9-875f5ef74655}, !- Zone Air Inlet Port List
  {edc70e32-87db-45e8-8a3d-4f5ed661bc9a}, !- Zone Air Exhaust Port List
  {3997a087-aeb9-4f63-8af7-77219f3fcf60}, !- Zone Air Node Name
  ,                                       !- Zone Return Air Node Name
  ,                                       !- Primary Daylighting Control Name
  ,                                       !- Fraction of Zone Controlled by Primary Daylighting Control
  ,                                       !- Secondary Daylighting Control Name
  ,                                       !- Fraction of Zone Controlled by Secondary Daylighting Control
  ,                                       !- Illuminance Map Name
  ,                                       !- Group Rendering Name
  ,                                       !- Thermostat Name
  No;                                     !- Use Ideal Air Loads

OS:Node,
  {614eacfb-cbc5-4e26-9d25-52257f88e20e}, !- Handle
  {1164ef38-9d5a-4ffa-a984-949d734d912f}, !- Name
  {3997a087-aeb9-4f63-8af7-77219f3fcf60}, !- Inlet Port
  ;                                       !- Outlet Port

OS:Connection,
  {3997a087-aeb9-4f63-8af7-77219f3fcf60}, !- Handle
  {a5b4f6bb-76ac-49ca-9714-ec400ef4073b}, !- Name
  {f4479f0a-f42d-4f5b-bdb4-546af61310a5}, !- Source Object
  11,                                     !- Outlet Port
  {614eacfb-cbc5-4e26-9d25-52257f88e20e}, !- Target Object
  2;                                      !- Inlet Port

OS:PortList,
  {d6074603-de52-4d1e-a2f9-875f5ef74655}, !- Handle
  {e094500e-a528-4e7f-813e-9e2e9bbd902a}, !- Name
  {f4479f0a-f42d-4f5b-bdb4-546af61310a5}; !- HVAC Component

OS:PortList,
  {edc70e32-87db-45e8-8a3d-4f5ed661bc9a}, !- Handle
  {21a6ca4c-d1d2-4c01-8a5d-e6f13dba456a}, !- Name
  {f4479f0a-f42d-4f5b-bdb4-546af61310a5}; !- HVAC Component

OS:Sizing:Zone,
  {00615f75-3efa-4ba9-8f97-bf705eb01624}, !- Handle
  {f4479f0a-f42d-4f5b-bdb4-546af61310a5}, !- Zone or ZoneList Name
  14,                                     !- Zone Cooling Design Supply Air Temperature {C}
  40,                                     !- Zone Heating Design Supply Air Temperature {C}
  0.0085,                                 !- Zone Cooling Design Supply Air Humidity Ratio {kg-H2O/kg-air}
  0.008,                                  !- Zone Heating Design Supply Air Humidity Ratio {kg-H2O/kg-air}
  ,                                       !- Zone Heating Sizing Factor
  ,                                       !- Zone Cooling Sizing Factor
  DesignDay,                              !- Cooling Design Air Flow Method
  ,                                       !- Cooling Design Air Flow Rate {m3/s}
  ,                                       !- Cooling Minimum Air Flow per Zone Floor Area {m3/s-m2}
  ,                                       !- Cooling Minimum Air Flow {m3/s}
  ,                                       !- Cooling Minimum Air Flow Fraction
  DesignDay,                              !- Heating Design Air Flow Method
  ,                                       !- Heating Design Air Flow Rate {m3/s}
  ,                                       !- Heating Maximum Air Flow per Zone Floor Area {m3/s-m2}
  ,                                       !- Heating Maximum Air Flow {m3/s}
  ,                                       !- Heating Maximum Air Flow Fraction
  ,                                       !- Design Zone Air Distribution Effectiveness in Cooling Mode
  ;                                       !- Design Zone Air Distribution Effectiveness in Heating Mode

OS:ZoneHVAC:EquipmentList,
  {6786afdf-2307-4fb2-8362-e25156c3d610}, !- Handle
  {8540e577-bffa-4223-8ddf-374efc7982bf}, !- Name
  {f4479f0a-f42d-4f5b-bdb4-546af61310a5}; !- Thermal Zone

OS:Space,
  {0301d7f6-33a7-4967-9d2b-ab9b1cfbe5aa}, !- Handle
  Core_bottom,                            !- Name
  ,                                       !- Space Type Name
  ,                                       !- Default Construction Set Name
  ,                                       !- Default Schedule Set Name
  0,                                      !- Direction of Relative North {deg}
  0,                                      !- X Origin {m}
  0,                                      !- Y Origin {m}
  0,                                      !- Z Origin {m}
  ,                                       !- Building Story Name
  {f4479f0a-f42d-4f5b-bdb4-546af61310a5}, !- Thermal Zone Name
  Yes;                                    !- Part of Total Floor Area

OS:Surface,
  {ed837c7d-a8d1-48a6-8eef-6bed72d42925}, !- Handle
  FirstFloor_Plenum_Ceiling_4,            !- Name
  RoofCeiling,                            !- Surface Type
  {d2639f93-4cc4-4eee-90ec-1f31812be744}, !- Construction Name
  {af409fa8-d6d1-4cb3-ab07-78dd65cb9800}, !- Space Name
  Surface,                                !- Outside Boundary Condition
  {3edb3dc0-7f5c-4e0f-8598-412854bf4412}, !- Outside Boundary Condition Object
  NoSun,                                  !- Sun Exposure
  NoWind,                                 !- Wind Exposure
  ,                                       !- View Factor to Ground
  ,                                       !- Number of Vertices
  0, 0, 3.9624,                           !- X,Y,Z Vertex 1 {m}
  4.5732, 4.5732, 3.9624,                 !- X,Y,Z Vertex 2 {m}
  4.5732, 28.7006, 3.9624,                !- X,Y,Z Vertex 3 {m}
  0, 33.2738, 3.9624;                     !- X,Y,Z Vertex 4 {m}

OS:Construction,
  {d2639f93-4cc4-4eee-90ec-1f31812be744}, !- Handle
  INT-FLOOR-UNDERSIDE,                    !- Name
  ,                                       !- Surface Rendering Name
  {535ec96f-d298-4dcf-8ba2-7f023ecf3749}, !- Layer 1
  {b3c80cdc-2b06-42dd-be24-dc008b11a129}; !- Layer 2

OS:ThermalZone,
  {c00902d7-caf2-45d0-93fe-279735e99ddd}, !- Handle
  FirstFloor_Plenum Thermal Zone,         !- Name
  1,                                      !- Multiplier
  ,                                       !- Ceiling Height {m}
  ,                                       !- Volume {m3}
  ,                                       !- Floor Area {m2}
  ,                                       !- Zone Inside Convection Algorithm
  ,                                       !- Zone Outside Convection Algorithm
  ,                                       !- Zone Conditioning Equipment List Name
  {8bd2b5de-0445-432f-ae2d-f5cc01a9c951}, !- Zone Air Inlet Port List
  {25965147-148c-497e-a985-c9e363e2e5ef}, !- Zone Air Exhaust Port List
  {9374b6d9-4d54-48ce-a7eb-cec45d1eb92e}, !- Zone Air Node Name
  ,                                       !- Zone Return Air Node Name
  ,                                       !- Primary Daylighting Control Name
  ,                                       !- Fraction of Zone Controlled by Primary Daylighting Control
  ,                                       !- Secondary Daylighting Control Name
  ,                                       !- Fraction of Zone Controlled by Secondary Daylighting Control
  ,                                       !- Illuminance Map Name
  ,                                       !- Group Rendering Name
  ,                                       !- Thermostat Name
  No;                                     !- Use Ideal Air Loads

OS:Node,
  {6fe3a559-910b-435b-9a1e-ee43861cda88}, !- Handle
  {fe902992-4fd0-4ddb-8163-27fb28e3000b}, !- Name
  {9374b6d9-4d54-48ce-a7eb-cec45d1eb92e}, !- Inlet Port
  ;                                       !- Outlet Port

OS:Connection,
  {9374b6d9-4d54-48ce-a7eb-cec45d1eb92e}, !- Handle
  {91c1062b-20ef-48be-b1d8-36df762b49ba}, !- Name
  {c00902d7-caf2-45d0-93fe-279735e99ddd}, !- Source Object
  11,                                     !- Outlet Port
  {6fe3a559-910b-435b-9a1e-ee43861cda88}, !- Target Object
  2;                                      !- Inlet Port

OS:PortList,
  {8bd2b5de-0445-432f-ae2d-f5cc01a9c951}, !- Handle
  {7316cf2f-10a2-4d31-a169-49da850f19e6}, !- Name
  {c00902d7-caf2-45d0-93fe-279735e99ddd}; !- HVAC Component

OS:PortList,
  {25965147-148c-497e-a985-c9e363e2e5ef}, !- Handle
  {003eea4a-d2ff-49ff-86b0-ac63e8d449b9}, !- Name
  {c00902d7-caf2-45d0-93fe-279735e99ddd}; !- HVAC Component

OS:Sizing:Zone,
  {3aca3388-971a-438d-8fd7-2c021c20be1a}, !- Handle
  {c00902d7-caf2-45d0-93fe-279735e99ddd}, !- Zone or ZoneList Name
  14,                                     !- Zone Cooling Design Supply Air Temperature {C}
  40,                                     !- Zone Heating Design Supply Air Temperature {C}
  0.0085,                                 !- Zone Cooling Design Supply Air Humidity Ratio {kg-H2O/kg-air}
  0.008,                                  !- Zone Heating Design Supply Air Humidity Ratio {kg-H2O/kg-air}
  ,                                       !- Zone Heating Sizing Factor
  ,                                       !- Zone Cooling Sizing Factor
  DesignDay,                              !- Cooling Design Air Flow Method
  ,                                       !- Cooling Design Air Flow Rate {m3/s}
  ,                                       !- Cooling Minimum Air Flow per Zone Floor Area {m3/s-m2}
  ,                                       !- Cooling Minimum Air Flow {m3/s}
  ,                                       !- Cooling Minimum Air Flow Fraction
  DesignDay,                              !- Heating Design Air Flow Method
  ,                                       !- Heating Design Air Flow Rate {m3/s}
  ,                                       !- Heating Maximum Air Flow per Zone Floor Area {m3/s-m2}
  ,                                       !- Heating Maximum Air Flow {m3/s}
  ,                                       !- Heating Maximum Air Flow Fraction
  ,                                       !- Design Zone Air Distribution Effectiveness in Cooling Mode
  ;                                       !- Design Zone Air Distribution Effectiveness in Heating Mode

OS:ZoneHVAC:EquipmentList,
  {ffd09fe9-24d3-4b60-9175-45c611df3ade}, !- Handle
  {e960a09b-e541-46d8-8e68-423e52f8511e}, !- Name
  {c00902d7-caf2-45d0-93fe-279735e99ddd}; !- Thermal Zone

OS:Space,
  {af409fa8-d6d1-4cb3-ab07-78dd65cb9800}, !- Handle
  FirstFloor_Plenum,                      !- Name
  ,                                       !- Space Type Name
  ,                                       !- Default Construction Set Name
  ,                                       !- Default Schedule Set Name
  0,                                      !- Direction of Relative North {deg}
  0,                                      !- X Origin {m}
  0,                                      !- Y Origin {m}
  0,                                      !- Z Origin {m}
  ,                                       !- Building Story Name
  {c00902d7-caf2-45d0-93fe-279735e99ddd}, !- Thermal Zone Name
  No;                                     !- Part of Total Floor Area

OS:Surface,
  {8bbd4623-f911-4cfe-8a43-7c3e7e31f8df}, !- Handle
  Perimeter_top_Plenum_Wall_West,         !- Name
  Wall,                                   !- Surface Type
  {5cca2d40-570b-497a-82a6-0dc91d7ed2e6}, !- Construction Name
  {a6db022f-dfaa-45fa-9573-a2cb4bec5f66}, !- Space Name
  Outdoors,                               !- Outside Boundary Condition
  ,                                       !- Outside Boundary Condition Object
  SunExposed,                             !- Sun Exposure
  WindExposed,                            !- Wind Exposure
  ,                                       !- View Factor to Ground
  ,                                       !- Number of Vertices
  0, 33.2738, 11.8872,                    !- X,Y,Z Vertex 1 {m}
  0, 33.2738, 10.668,                     !- X,Y,Z Vertex 2 {m}
  0, 0, 10.668,                           !- X,Y,Z Vertex 3 {m}
  0, 0, 11.8872;                          !- X,Y,Z Vertex 4 {m}

OS:Construction,
  {5cca2d40-570b-497a-82a6-0dc91d7ed2e6}, !- Handle
  Steel Frame Non-res Ext Wall,           !- Name
  ,                                       !- Surface Rendering Name
  {98110651-d979-4e50-8ca3-8373b0411be4}, !- Layer 1
  {db9fbe95-0888-42ef-867e-66b452fc973f}, !- Layer 2
  {8680bdef-55b0-46cb-ae20-1ca186008971}; !- Layer 3

OS:Material,
  {98110651-d979-4e50-8ca3-8373b0411be4}, !- Handle
  Wood Siding,                            !- Name
  MediumSmooth,                           !- Roughness
  0.01,                                   !- Thickness {m}
  0.11,                                   !- Conductivity {W/m-K}
  544.62,                                 !- Density {kg/m3}
  1210,                                   !- Specific Heat {J/kg-K}
  0.9,                                    !- Thermal Absorptance
  0.78,                                   !- Solar Absorptance
  0.78;                                   !- Visible Absorptance

OS:Material,
  {db9fbe95-0888-42ef-867e-66b452fc973f}, !- Handle
  Steel Frame NonRes Wall Insulation,     !- Name
  MediumRough,                            !- Roughness
  0.0870564552646045,                     !- Thickness {m}
  0.049,                                  !- Conductivity {W/m-K}
  265,                                    !- Density {kg/m3}
  836.8,                                  !- Specific Heat {J/kg-K}
  0.9,                                    !- Thermal Absorptance
  0.7,                                    !- Solar Absorptance
  0.7;                                    !- Visible Absorptance

OS:ThermalZone,
  {922cc324-3f20-40f2-98cc-db0b6a4da580}, !- Handle
  TopFloor_Plenum Thermal Zone,           !- Name
  1,                                      !- Multiplier
  ,                                       !- Ceiling Height {m}
  ,                                       !- Volume {m3}
  ,                                       !- Floor Area {m2}
  ,                                       !- Zone Inside Convection Algorithm
  ,                                       !- Zone Outside Convection Algorithm
  ,                                       !- Zone Conditioning Equipment List Name
  {51f230a3-baf7-48aa-8ccb-fca6b4dca7ca}, !- Zone Air Inlet Port List
  {75ad801b-3a96-442c-8368-55a70442938f}, !- Zone Air Exhaust Port List
  {c3560cee-15d4-46d3-8e14-7961e8c7a634}, !- Zone Air Node Name
  ,                                       !- Zone Return Air Node Name
  ,                                       !- Primary Daylighting Control Name
  ,                                       !- Fraction of Zone Controlled by Primary Daylighting Control
  ,                                       !- Secondary Daylighting Control Name
  ,                                       !- Fraction of Zone Controlled by Secondary Daylighting Control
  ,                                       !- Illuminance Map Name
  ,                                       !- Group Rendering Name
  ,                                       !- Thermostat Name
  No;                                     !- Use Ideal Air Loads

OS:Node,
  {466ab0c9-409e-48b9-8e4d-15798c3391c8}, !- Handle
  {8c46a74a-e2bc-4b3f-98b8-5f1bd4e4555c}, !- Name
  {c3560cee-15d4-46d3-8e14-7961e8c7a634}, !- Inlet Port
  ;                                       !- Outlet Port

OS:Connection,
  {c3560cee-15d4-46d3-8e14-7961e8c7a634}, !- Handle
  {dfa5c0cc-e1e7-424f-a80c-e433ac49c8fb}, !- Name
  {922cc324-3f20-40f2-98cc-db0b6a4da580}, !- Source Object
  11,                                     !- Outlet Port
  {466ab0c9-409e-48b9-8e4d-15798c3391c8}, !- Target Object
  2;                                      !- Inlet Port

OS:PortList,
  {51f230a3-baf7-48aa-8ccb-fca6b4dca7ca}, !- Handle
  {7177f303-6394-4214-8429-765ddbfae3f9}, !- Name
  {922cc324-3f20-40f2-98cc-db0b6a4da580}; !- HVAC Component

OS:PortList,
  {75ad801b-3a96-442c-8368-55a70442938f}, !- Handle
  {7a5f5831-3476-4914-b072-bc7164bfdbbd}, !- Name
  {922cc324-3f20-40f2-98cc-db0b6a4da580}; !- HVAC Component

OS:Sizing:Zone,
  {ac74d09d-ad73-4259-b8fa-1fbc1b65fd44}, !- Handle
  {922cc324-3f20-40f2-98cc-db0b6a4da580}, !- Zone or ZoneList Name
  14,                                     !- Zone Cooling Design Supply Air Temperature {C}
  40,                                     !- Zone Heating Design Supply Air Temperature {C}
  0.0085,                                 !- Zone Cooling Design Supply Air Humidity Ratio {kg-H2O/kg-air}
  0.008,                                  !- Zone Heating Design Supply Air Humidity Ratio {kg-H2O/kg-air}
  ,                                       !- Zone Heating Sizing Factor
  ,                                       !- Zone Cooling Sizing Factor
  DesignDay,                              !- Cooling Design Air Flow Method
  ,                                       !- Cooling Design Air Flow Rate {m3/s}
  ,                                       !- Cooling Minimum Air Flow per Zone Floor Area {m3/s-m2}
  ,                                       !- Cooling Minimum Air Flow {m3/s}
  ,                                       !- Cooling Minimum Air Flow Fraction
  DesignDay,                              !- Heating Design Air Flow Method
  ,                                       !- Heating Design Air Flow Rate {m3/s}
  ,                                       !- Heating Maximum Air Flow per Zone Floor Area {m3/s-m2}
  ,                                       !- Heating Maximum Air Flow {m3/s}
  ,                                       !- Heating Maximum Air Flow Fraction
  ,                                       !- Design Zone Air Distribution Effectiveness in Cooling Mode
  ;                                       !- Design Zone Air Distribution Effectiveness in Heating Mode

OS:ZoneHVAC:EquipmentList,
  {767a9173-5f29-46af-98e7-d37350088da8}, !- Handle
  {c0b7f760-aac5-46eb-8079-b0060a93a19c}, !- Name
  {922cc324-3f20-40f2-98cc-db0b6a4da580}; !- Thermal Zone

OS:Space,
  {a6db022f-dfaa-45fa-9573-a2cb4bec5f66}, !- Handle
  TopFloor_Plenum,                        !- Name
  ,                                       !- Space Type Name
  ,                                       !- Default Construction Set Name
  ,                                       !- Default Schedule Set Name
  0,                                      !- Direction of Relative North {deg}
  0,                                      !- X Origin {m}
  0,                                      !- Y Origin {m}
  0,                                      !- Z Origin {m}
  ,                                       !- Building Story Name
  {922cc324-3f20-40f2-98cc-db0b6a4da580}, !- Thermal Zone Name
  No;                                     !- Part of Total Floor Area

OS:Surface,
  {b90242e8-7039-45eb-a313-1beb1f893fcb}, !- Handle
  Perimeter_top_ZN_3_Wall_North,          !- Name
  Wall,                                   !- Surface Type
  {5cca2d40-570b-497a-82a6-0dc91d7ed2e6}, !- Construction Name
  {67aa5b71-cfb3-4a14-86b6-9f9ba9a407f8}, !- Space Name