
OS:Version,
  {ee84bb6d-0d6c-4903-bc6d-2e5caf35eed7}, !- Handle
  1.5.0;                                  !- Version Identifier

OS:Site,
  {5341c9d2-2c1c-4817-a174-0f170b414c4f}, !- Handle
  San Francisco Intl Ap_CA_USA Design_Conditions, !- Name
  37.62,                                  !- Latitude {deg}
  -122.4,                                 !- Longitude {deg}
  -8,                                     !- Time Zone {hr}
  2,                                      !- Elevation {m}
  Suburbs;                                !- Terrain

OS:SimulationControl,
  {b0ccd6b2-a635-4a92-af36-4abab46661c9}, !- Handle
  Yes,                                    !- Do Zone Sizing Calculation
  Yes,                                    !- Do System Sizing Calculation
  Yes,                                    !- Do Plant Sizing Calculation
  Yes,                                    !- Run Simulation for Sizing Periods
  Yes,                                    !- Run Simulation for Weather File Run Periods
  0.04,                                   !- Loads Convergence Tolerance Value
  0.4,                                    !- Temperature Convergence Tolerance Value {deltaC}
  FullExterior,                           !- Solar Distribution
  25,                                     !- Maximum Number of Warmup Days
  6;                                      !- Minimum Number of Warmup Days

OS:SubSurface,
  {f662f7f8-3815-461b-903d-793162b7599c}, !- Handle
  W_GuestRoom302_305_5_0_0_0_3,           !- Name
  FixedWindow,                            !- Sub Surface Type
  ,                                       !- Construction Name
  {9f27f22b-a23a-405e-9417-970caefb8929}, !- Surface Name
  ,                                       !- Outside Boundary Condition Object
  ,                                       !- View Factor to Ground
  ,                                       !- Shading Control Name
  ,                                       !- Frame and Divider Name
  1,                                      !- Multiplier
  ,                                       !- Number of Vertices
  17.3098844241, 0.0488452197, 8.1896,    !- X,Y,Z Vertex 1 {m}
  17.3098844241, 0.0488452197, 6.7456,    !- X,Y,Z Vertex 2 {m}
  18.4490844241, 0.0488452197, 6.7456,    !- X,Y,Z Vertex 3 {m}
  18.4490844241, 0.0488452197, 8.1896;    !- X,Y,Z Vertex 4 {m}

OS:Surface,
  {9f27f22b-a23a-405e-9417-970caefb8929}, !- Handle
  W_GuestRoom302_305_5_0_0,               !- Name
  Wall,                                   !- Surface Type
  ,                                       !- Construction Name
  {b6e6b59f-054e-49d0-81e5-16a1cb76c0a6}, !- Space Name
  Outdoors,                               !- Outside Boundary Condition
  ,                                       !- Outside Boundary Condition Object
  SunExposed,                             !- Sun Exposure
  WindExposed,                            !- Wind Exposure
  ,                                       !- View Factor to Ground
  ,                                       !- Number of Vertices
  4.011084424, 0.0488452197, 8.8392,      !- X,Y,Z Vertex 1 {m}
  4.011084424, 0.0488452197, 6.096,       !- X,Y,Z Vertex 2 {m}
  19.8606844241, 0.0488452197, 6.096,     !- X,Y,Z Vertex 3 {m}
  19.8606844241, 0.0488452197, 8.8392;    !- X,Y,Z Vertex 4 {m}

OS:Connection,
  {a1a96583-4608-4697-905b-649512e16585}, !- Handle
  {24f9e8bc-302a-4c8d-af41-52ce14fb61bb}, !- Name
  ,                                       !- Source Object
  11,                                     !- Outlet Port
  ,                                       !- Target Object
  2;                                      !- Inlet Port

OS:Space,
  {b6e6b59f-054e-49d0-81e5-16a1cb76c0a6}, !- Handle
  GuestRoom302_305,                       !- Name
  ,                                       !- Space Type Name
  ,                                       !- Default Construction Set Name
  ,                                       !- Default Schedule Set Name
  0,                                      !- Direction of Relative North {deg}
  0,                                      !- X Origin {m}
  0,                                      !- Y Origin {m}
  0,                                      !- Z Origin {m}
  ,                                       !- Building Story Name
  ,                                       !- Thermal Zone Name
  ,                                       !- Part of Total Floor Area
  ;                                       !- Design Specification Outdoor Air Object Name

OS:Schedule:Compact,
  {8eca85af-79da-470a-8260-86c380591994}, !- Handle
  VacGuestRoom_HtgSP_Sch,                 !- Name
  {5d20886a-a117-49ad-ad3d-ab17722ff04d}, !- Schedule Type Limits Name
  Through: 12/31,                         !- Field 1
  For: AllDays,                           !- Field 2
  Until: 24:00,                           !- Field 3
  18.889;                                 !- Field 4

OS:ScheduleTypeLimits,
  {5d20886a-a117-49ad-ad3d-ab17722ff04d}, !- Handle
  Temperature,                            !- Name
  -60,                                    !- Lower Limit Value {BasedOnField A4}
  200,                                    !- Upper Limit Value {BasedOnField A4}
  Continuous,                             !- Numeric Type
  Temperature;                            !- Unit Type

OS:Schedule:Compact,
  {6fa0e694-e7c1-42d0-ab44-e8097f4605c0}, !- Handle
  VacGuestRoom_ClgSP_Sch,                 !- Name
  {5d20886a-a117-49ad-ad3d-ab17722ff04d}, !- Schedule Type Limits Name
  Through: 12/31,                         !- Field 1
  For: AllDays,                           !- Field 2
  Until: 24:00,                           !- Field 3
  23.333;                                 !- Field 4

OS:Connection,
  {380ec220-d144-410f-b3e5-e55ae63c262e}, !- Handle
  {2ad1e7e6-65d8-494a-a867-a8f582582de5}, !- Name
  ,                                       !- Source Object
  11,                                     !- Outlet Port
  ,                                       !- Target Object
  2;                                      !- Inlet Port

OS:Space,
  {7e087f20-f872-47a5-b26a-ab2cdf176a9c}, !- Handle
  GuestRoom313,                           !- Name
  ,                                       !- Space Type Name
  ,                                       !- Default Construction Set Name
  ,                                       !- Default Schedule Set Name
  0,                                      !- Direction of Relative North {deg}
  0,                                      !- X Origin {m}
  0,                                      !- Y Origin {m}
  0,                                      !- Z Origin {m}
  ,                                       !- Building Story Name
  ,                                       !- Thermal Zone Name
  ,                                       !- Part of Total Floor Area
  ;                                       !- Design Specification Outdoor Air Object Name

OS:Schedule:Compact,
  {95c0a5aa-e214-4ead-b408-1a33a64d65da}, !- Handle
  AlwaysOff,                              !- Name
  {b5bd176d-9701-48d6-af2e-da9cc33723c1}, !- Schedule Type Limits Name
  Through: 12/31,                         !- Field 1
  For: AllDays,                           !- Field 2
  Until: 24:00,                           !- Field 3
  0;                                      !- Field 4

OS:ScheduleTypeLimits,
  {b5bd176d-9701-48d6-af2e-da9cc33723c1}, !- Handle
  On/Off,                                 !- Name
  0,                                      !- Lower Limit Value {BasedOnField A4}
  1,                                      !- Upper Limit Value {BasedOnField A4}
  Discrete,                               !- Numeric Type
  Availability;                           !- Unit Type

OS:Schedule:Compact,
  {0984e327-965c-4bd3-bc04-965d1d273628}, !- Handle
  Activity_Sch,                           !- Name
  {0459b00a-6ad5-403f-9269-6cde6caa9fe4}, !- Schedule Type Limits Name
  Through: 12/31,                         !- Field 1
  For: AllDays,                           !- Field 2
  Until: 24:00,                           !- Field 3
  132;                                    !- Field 4

OS:ScheduleTypeLimits,
  {9b4b9182-6a02-4a0d-8b15-7efbc6d8981c}, !- Handle
  {e4d28506-8d98-4149-8f1e-d0e9950b1881}; !- Name

OS:ScheduleTypeLimits,
  {0459b00a-6ad5-403f-9269-6cde6caa9fe4}, !- Handle
  ActivityLevel,                          !- Name
  0,                                      !- Lower Limit Value {BasedOnField A4}
  ,                                       !- Upper Limit Value {BasedOnField A4}
  Continuous,                             !- Numeric Type
  ActivityLevel;                          !- Unit Type

OS:Connection,
  {9a48861c-0db8-4533-a994-cb7ae846e24d}, !- Handle
  {936af5bd-a931-4bca-8c2a-99898e92b254}, !- Name
  ,                                       !- Source Object
  11,                                     !- Outlet Port
  ,                                       !- Target Object
  2;                                      !- Inlet Port

OS:Space,
  {0a0f10b8-1e9a-49e2-8754-aaed91336db9}, !- Handle
  MeetingRoomFlr1,                        !- Name
  ,                                       !- Space Type Name
  ,                                       !- Default Construction Set Name
  ,                                       !- Default Schedule Set Name
  0,                                      !- Direction of Relative North {deg}
  0,                                      !- X Origin {m}
  0,                                      !- Y Origin {m}
  0,                                      !- Z Origin {m}
  ,                                       !- Building Story Name
  ,                                       !- Thermal Zone Name
  ,                                       !- Part of Total Floor Area
  ;                                       !- Design Specification Outdoor Air Object Name

OS:Schedule:Compact,
  {5e87cd43-9681-4987-a6e5-53088e011624}, !- Handle
  CommonArea_HtgSP_Sch,                   !- Name
  {5d20886a-a117-49ad-ad3d-ab17722ff04d}, !- Schedule Type Limits Name
  Through: 12/31,                         !- Field 1
  For: AllDays,                           !- Field 2
  Until: 24:00,                           !- Field 3
  21.111;                                 !- Field 4

OS:Schedule:Compact,
  {f5fc9274-0fd6-4281-b5a1-f2b8ec1ec679}, !- Handle
  CommonArea_ClgSP_Sch,                   !- Name
  {5d20886a-a117-49ad-ad3d-ab17722ff04d}, !- Schedule Type Limits Name
  Through: 12/31,                         !- Field 1
  For: AllDays,                           !- Field 2
  Until: 24:00,                           !- Field 3
  23.889;                                 !- Field 4

OS:Connection,
  {e59756ec-0aa8-4494-8755-4caad07aea36}, !- Handle
  {2631fe48-231f-4aa2-ab12-4a0db67f8a87}, !- Name
  ,                                       !- Source Object
  11,                                     !- Outlet Port
  ,                                       !- Target Object
  2;                                      !- Inlet Port

OS:Space,
  {e35cc3c3-623b-4975-b339-e844aa1ae867}, !- Handle
  GuestRoom201,                           !- Name
  ,                                       !- Space Type Name
  ,                                       !- Default Construction Set Name
  ,                                       !- Default Schedule Set Name
  0,                                      !- Direction of Relative North {deg}
  0,                                      !- X Origin {m}
  0,                                      !- Y Origin {m}
  0,                                      !- Z Origin {m}
  ,                                       !- Building Story Name
  ,                                       !- Thermal Zone Name
  ,                                       !- Part of Total Floor Area
  ;                                       !- Design Specification Outdoor Air Object Name

OS:Schedule:Compact,
  {2db0afac-9eff-4d81-b3f8-8c4ea0208a6e}, !- Handle
  SHWSysLaundry Water Heater Setpoint Temperature Schedule, !- Name
  {5d20886a-a117-49ad-ad3d-ab17722ff04d}, !- Schedule Type Limits Name
  Through: 12/31,                         !- Field 1
  For: AllDays,                           !- Field 2
  Until: 24:00,                           !- Field 3
  60.0;                                   !- Field 4

OS:Connection,
  {79262454-6f92-422f-a002-1f43f9216678}, !- Handle
  {9977c535-1c8e-4a23-acc7-e44843f8f106}, !- Name
  ,                                       !- Source Object
  11,                                     !- Outlet Port
  ,                                       !- Target Object
  2;                                      !- Inlet Port

OS:Space,
  {635a238e-e7ec-4a36-b405-2bce6817a33c}, !- Handle
  GuestRoom314,                           !- Name
  ,                                       !- Space Type Name
  ,                                       !- Default Construction Set Name
  ,                                       !- Default Schedule Set Name
  0,                                      !- Direction of Relative North {deg}
  0,                                      !- X Origin {m}
  0,                                      !- Y Origin {m}
  0,                                      !- Z Origin {m}
  ,                                       !- Building Story Name
  ,                                       !- Thermal Zone Name
  ,                                       !- Part of Total Floor Area
  ;                                       !- Design Specification Outdoor Air Object Name

OS:Schedule:Compact,
  {4f9e3c42-0787-41e5-a8a0-9d263d19ea48}, !- Handle
  Base_OccGuestRoom_HtgSP_Sch,            !- Name
  {5d20886a-a117-49ad-ad3d-ab17722ff04d}, !- Schedule Type Limits Name
  Through: 12/31,                         !- Field 1
  For: AllDays,                           !- Field 2
  Until: 24:00,                           !- Field 3
  21.111;                                 !- Field 4

OS:Schedule:Compact,
  {0515863a-e91a-419e-88d1-b30c46450b3c}, !- Handle
  Base_OccGuestRoom_ClgSP_Sch,            !- Name
  {5d20886a-a117-49ad-ad3d-ab17722ff04d}, !- Schedule Type Limits Name
  Through: 12/31,                         !- Field 1
  For: AllDays,                           !- Field 2
  Until: 24:00,                           !- Field 3
  21.111;                                 !- Field 4

OS:Schedule:Compact,
  {99b07d17-42cb-44f8-9abb-ee23749154f6}, !- Handle
  GuestRoom_Eqp_Sch_Base,                 !- Name
  {7c3445db-e82a-49db-a9b8-65ed43596e9e}, !- Schedule Type Limits Name
  Through: 12/31,                         !- Field 1
  For: Weekdays,                          !- Field 2
  Until: 06:00,                           !- Field 3
  0.11,                                   !- Field 4
  Until: 07:00,                           !- Field 5
  0.62,                                   !- Field 6
  Until: 08:00,                           !- Field 7
  0.90,                                   !- Field 8
  Until: 10:00,                           !- Field 9
  0.43,                                   !- Field 10
  Until: 17:00,                           !- Field 11
  0.26,                                   !- Field 12
  Until: 19:00,                           !- Field 13
  0.51,                                   !- Field 14
  Until: 20:00,                           !- Field 15
  0.49,                                   !- Field 16
  Until: 21:00,                           !- Field 17
  0.66,                                   !- Field 18
  Until: 22:00,                           !- Field 19
  0.70,                                   !- Field 20
  Until: 23:00,                           !- Field 21
  0.35,                                   !- Field 22
  Until: 24:00,                           !- Field 23
  0.11,                                   !- Field 24
  For: Saturday Sunday Holidays,          !- Field 25
  Until: 06:00,                           !- Field 26
  0.11,                                   !- Field 27
  Until: 07:00,                           !- Field 28
  0.3,                                    !- Field 29
  Until: 08:00,                           !- Field 30
  0.62,                                   !- Field 31
  Until: 09:00,                           !- Field 32
  0.90,                                   !- Field 33
  Until: 10:00,                           !- Field 34
  0.62,                                   !- Field 35
  Until: 17:00,                           !- Field 36
  0.29,                                   !- Field 37
  Until: 18:00,                           !- Field 38
  0.43,                                   !- Field 39
  Until: 19:00,                           !- Field 40
  0.51,                                   !- Field 41
  Until: 20:00,                           !- Field 42
  0.49,                                   !- Field 43
  Until: 21:00,                           !- Field 44
  0.66,                                   !- Field 45
  Until: 22:00,                           !- Field 46
  0.70,                                   !- Field 47
  Until: 23:00,                           !- Field 48
  0.35,                                   !- Field 49
  Until: 24:00,                           !- Field 50
  0.11,                                   !- Field 51
  For: WinterDesignDay,                   !- Field 52
  Until: 24:00,                           !- Field 53
  0.0,                                    !- Field 54
  For: SummerDesignDay CustomDay1 CustomDay2, !- Field 55
  Until: 24:00,                           !- Field 56
  1.0;                                    !- Field 57

OS:ScheduleTypeLimits,
  {7c3445db-e82a-49db-a9b8-65ed43596e9e}, !- Handle
  Fraction,                               !- Name
  0,                                      !- Lower Limit Value {BasedOnField A4}
  ,                                       !- Upper Limit Value {BasedOnField A4}
  Continuous;                             !- Numeric Type

OS:Surface,
  {d479b89f-b88d-4a3b-9fa3-56c91c29a2e2}, !- Handle
  P_ElevatorCoreFlr2_10108_0_10068,       !- Name
  Wall,                                   !- Surface Type
  ,                                       !- Construction Name
  {6f79552e-8dd6-49bf-aa3e-38d39dcc9d51}, !- Space Name
  Surface,                                !- Outside Boundary Condition
  {ca186b39-de80-45d5-a04c-6b93d59485aa}, !- Outside Boundary Condition Object
  NoSun,                                  !- Sun Exposure
  NoWind,                                 !- Wind Exposure
  ,                                       !- View Factor to Ground
  ,                                       !- Number of Vertices
  26.8710844241, 18.33742922, 6.096,      !- X,Y,Z Vertex 1 {m}
  26.8710844241, 18.33742922, 3.3528,     !- X,Y,Z Vertex 2 {m}
  26.8710844241, 10.10782922, 3.3528,     !- X,Y,Z Vertex 3 {m}
  26.8710844241, 10.10782922, 6.096;      !- X,Y,Z Vertex 4 {m}

OS:Connection,
  {3e629776-422f-4a1a-bd42-6a6084e24be1}, !- Handle
  {e86e8b90-be50-4ed4-b9db-9ea223e2ea3e}, !- Name
  ,                                       !- Source Object
  11,                                     !- Outlet Port
  ,                                       !- Target Object
  2;                                      !- Inlet Port

OS:Space,
  {6f79552e-8dd6-49bf-aa3e-38d39dcc9d51}, !- Handle
  ElevatorCoreFlr2,                       !- Name
  ,                                       !- Space Type Name
  ,                                       !- Default Construction Set Name
  ,                                       !- Default Schedule Set Name
  0,                                      !- Direction of Relative North {deg}
  0,                                      !- X Origin {m}
  0,                                      !- Y Origin {m}
  0,                                      !- Z Origin {m}
  ,                                       !- Building Story Name
  ;                                       !- Thermal Zone Name

OS:Connection,
  {25b35ca5-56b9-4026-ac08-c74ce7db5d5a}, !- Handle
  {f969d7c3-ac15-411c-bda5-d42039bf0b1e}, !- Name
  ,                                       !- Source Object
  11,                                     !- Outlet Port
  ,                                       !- Target Object
  2;                                      !- Inlet Port

OS:Space,
  {7e4d248d-c156-4ba7-aa48-3156b6d989f4}, !- Handle
  FrontStairsFlr1,                        !- Name
  ,                                       !- Space Type Name
  ,                                       !- Default Construction Set Name
  ,                                       !- Default Schedule Set Name
  0,                                      !- Direction of Relative North {deg}
  0,                                      !- X Origin {m}
  0,                                      !- Y Origin {m}
  0,                                      !- Z Origin {m}
  ,                                       !- Building Story Name
  ,                                       !- Thermal Zone Name
  ,                                       !- Part of Total Floor Area
  ;                                       !- Design Specification Outdoor Air Object Name

OS:Schedule:Compact,
  {a9e7d64d-5b57-43a7-8aa2-808299e2328b}, !- Handle
  AlwaysOn,                               !- Name
  {b5bd176d-9701-48d6-af2e-da9cc33723c1}, !- Schedule Type Limits Name
  Through: 12/31,                         !- Field 1
  For: AllDays,                           !- Field 2
  Until: 24:00,                           !- Field 3
  1;                                      !- Field 4

OS:Schedule:Compact,
  {052f3c4e-3ca0-4ca1-9d64-d199e99d5ca0}, !- Handle
  GuestRoom_Occ_Sch,                      !- Name
  {7c3445db-e82a-49db-a9b8-65ed43596e9e}, !- Schedule Type Limits Name
  Through: 12/31,                         !- Field 1
  For: Weekdays,                          !- Field 2
  Until: 06:00,                           !- Field 3
  1.0,                                    !- Field 4
  Until: 07:00,                           !- Field 5
  0.77,                                   !- Field 6
  Until: 09:00,                           !- Field 7
  0.43,                                   !- Field 8
  Until: 15:00,                           !- Field 9
  0.2,                                    !- Field 10
  Until: 16:00,                           !- Field 11
  0.31,                                   !- Field 12
  Until: 19:00,                           !- Field 13
  0.54,                                   !- Field 14
  Until: 21:00,                           !- Field 15
  0.77,                                   !- Field 16
  Until: 22:00,                           !- Field 17
  0.89,                                   !- Field 18
  Until: 24:00,                           !- Field 19
  1.0,                                    !- Field 20
  For: Saturday Sunday Holidays,          !- Field 21
  Until: 06:00,                           !- Field 22
  1.0,                                    !- Field 23
  Until: 07:00,                           !- Field 24
  0.77,                                   !- Field 25
  Until: 09:00,                           !- Field 26
  0.53,                                   !- Field 27
  Until: 17:00,                           !- Field 28
  0.3,                                    !- Field 29
  Until: 18:00,                           !- Field 30
  0.53,                                   !- Field 31
  Until: 19:00,                           !- Field 32
  0.54,                                   !- Field 33
  Until: 21:00,                           !- Field 34
  0.65,                                   !- Field 35
  Until: 24:00,                           !- Field 36
  0.77,                                   !- Field 37
  For: WinterDesignDay,                   !- Field 38
  Until: 24:00,                           !- Field 39
  0,                                      !- Field 40
  For: SummerDesignDay CustomDay1 CustomDay2, !- Field 41
  Until: 24:00,                           !- Field 42
  1.0;                                    !- Field 43

OS:Surface,
  {f85137cc-34bd-452d-bf32-09f72fb72b0a}, !- Handle
  F_FrontStairsFlr3_10192_0_10104,        !- Name
  Floor,                                  !- Surface Type
  ,                                       !- Construction Name
  {6ad831a3-bc9e-4821-b547-c1e6338de7fa}, !- Space Name
  Surface,                                !- Outside Boundary Condition
  {ef40dea5-03f1-4711-ad0c-71a6896354ce}, !- Outside Boundary Condition Object
  NoSun,                                  !- Sun Exposure
  NoWind,                                 !- Wind Exposure
  ,                                       !- View Factor to Ground
  ,                                       !- Number of Vertices
  2.48708442, 18.33742922, 6.096,         !- X,Y,Z Vertex 1 {m}
  2.48708442, 10.10782922, 6.096,         !- X,Y,Z Vertex 2 {m}
  0.04868442, 10.10782922, 6.096,         !- X,Y,Z Vertex 3 {m}
  0.04868442, 18.33742922, 6.096;         !- X,Y,Z Vertex 4 {m}

OS:Connection,
  {00aac4a7-ab5f-4fb7-9d0d-b473827ba2e0}, !- Handle
  {568c4227-3b84-403a-a9e3-62dee9e5f627}, !- Name
  ,                                       !- Source Object
  11,                                     !- Outlet Port
  ,                                       !- Target Object
  2;                                      !- Inlet Port

OS:Space,
  {6ad831a3-bc9e-4821-b547-c1e6338de7fa}, !- Handle
  FrontStairsFlr3,                        !- Name
  ,                                       !- Space Type Name
  ,                                       !- Default Construction Set Name
  ,                                       !- Default Schedule Set Name
  0,                                      !- Direction of Relative North {deg}
  0,                                      !- X Origin {m}
  0,                                      !- Y Origin {m}
  0,                                      !- Z Origin {m}
  ,                                       !- Building Story Name
  ,                                       !- Thermal Zone Name
  ,                                       !- Part of Total Floor Area
  ;                                       !- Design Specification Outdoor Air Object Name

OS:Surface,
  {4f3f7791-0eb9-4b88-bfb6-9c9d4486421f}, !- Handle
  P_CorridorFlr1_8_0_0,                   !- Name
  Wall,                                   !- Surface Type
  ,                                       !- Construction Name
  {30d51f83-16e4-4f6f-8bec-d01f8fdd86d7}, !- Space Name
  Surface,                                !- Outside Boundary Condition
  {2f7c11af-4ed9-4c95-b817-349460ec620a}, !- Outside Boundary Condition Object
  NoSun,                                  !- Sun Exposure
  NoWind,                                 !- Wind Exposure
  ,                                       !- View Factor to Ground
  ,                                       !- Number of Vertices
  28.69988442, 10.1078292198, 3.3528,     !- X,Y,Z Vertex 1 {m}
  28.69988442, 10.1078292198, 0,          !- X,Y,Z Vertex 2 {m}
  26.87108442, 10.1078292198, 0,          !- X,Y,Z Vertex 3 {m}
  26.87108442, 10.1078292198, 3.3528;     !- X,Y,Z Vertex 4 {m}

OS:Connection,
  {c8cc0a99-c475-4140-9447-87e73dba1be2}, !- Handle
  {6a50e4eb-05bf-4ea5-8281-c0a2a85e8469}, !- Name
  ,                                       !- Source Object
  11,                                     !- Outlet Port
  ,                                       !- Target Object
  2;                                      !- Inlet Port

OS:Space,
  {30d51f83-16e4-4f6f-8bec-d01f8fdd86d7}, !- Handle
  CorridorFlr1,                           !- Name
  ,                                       !- Space Type Name
  ,                                       !- Default Construction Set Name
  ,                                       !- Default Schedule Set Name
  0,                                      !- Direction of Relative North {deg}
  0,                                      !- X Origin {m}
  0,                                      !- Y Origin {m}
  0,                                      !- Z Origin {m}
  ,                                       !- Building Story Name
  ,                                       !- Thermal Zone Name
  ,                                       !- Part of Total Floor Area
  ;                                       !- Design Specification Outdoor Air Object Name

OS:Connection,
  {75f65c2e-fb6f-4338-9713-616851e0437b}, !- Handle
  {6126c133-d5bc-4900-8855-a1fc4e1ef54f}, !- Name
  ,                                       !- Source Object
  11,                                     !- Outlet Port
  ,                                       !- Target Object
  2;                                      !- Inlet Port

OS:Space,
  {358eed2a-c5a0-45e4-8970-d85494b00c5b}, !- Handle
  GuestRoom101,                           !- Name
  ,                                       !- Space Type Name
  ,                                       !- Default Construction Set Name
  ,                                       !- Default Schedule Set Name
  0,                                      !- Direction of Relative North {deg}
  0,                                      !- X Origin {m}
  0,                                      !- Y Origin {m}
  0,                                      !- Z Origin {m}
  ,                                       !- Building Story Name
  ,                                       !- Thermal Zone Name
  ,                                       !- Part of Total Floor Area
  ;                                       !- Design Specification Outdoor Air Object Name

OS:Surface,
  {8df65572-3c02-482c-b015-3e5cee77c2ab}, !- Handle
  C_FrontLoungeFlr1_1_0_0,                !- Name
  RoofCeiling,                            !- Surface Type
  ,                                       !- Construction Name
  {20b75f5e-9394-4eb0-8115-be6271409405}, !- Space Name
  Surface,                                !- Outside Boundary Condition