
OS:Version,
  {d8c5b372-fddf-4476-b5de-9a3ee39e9de0}, !- Handle
  1.5.0;                                  !- Version Identifier

OS:Site,
  {e4e0cf83-aa67-462b-ac86-dd69d24de0d1}, !- Handle
  Houston Bush Intercontinental_TX_USA Design_Conditions, !- Name
  30,                                     !- Latitude {deg}
  -95.37,                                 !- Longitude {deg}
  -6,                                     !- Time Zone {hr}
  29,                                     !- Elevation {m}
  City;                                   !- Terrain

OS:SimulationControl,
  {fe5b5f3c-f637-4fd1-a2b3-f4d09456dccb}, !- Handle
  Yes,                                    !- Do Zone Sizing Calculation
  Yes,                                    !- Do System Sizing Calculation
  Yes,                                    !- Do Plant Sizing Calculation
  Yes,                                    !- Run Simulation for Sizing Periods
  Yes,                                    !- Run Simulation for Weather File Run Periods
  0.04,                                   !- Loads Convergence Tolerance Value
  0.2,                                    !- Temperature Convergence Tolerance Value {deltaC}
  FullInteriorAndExterior,                !- Solar Distribution
  25,                                     !- Maximum Number of Warmup Days
  6;                                      !- Minimum Number of Warmup Days

OS:Surface,
  {67ca62ce-e572-4957-8e6a-efb74825f170}, !- Handle
  Perimeter_ZN_1_wall_south,              !- Name
  Wall,                                   !- Surface Type
  ,                                       !- Construction Name
  {72459874-7e2c-4ecd-ae58-b2d96c368b31}, !- Space Name
  Outdoors,                               !- Outside Boundary Condition
  ,                                       !- Outside Boundary Condition Object
  SunExposed,                             !- Sun Exposure
  WindExposed,                            !- Wind Exposure
  ,                                       !- View Factor to Ground
  ,                                       !- Number of Vertices
  0, 0, 3.05,                             !- X,Y,Z Vertex 1 {m}
  0, 0, 0,                                !- X,Y,Z Vertex 2 {m}
  27.69, 0, 0,                            !- X,Y,Z Vertex 3 {m}
  27.69, 0, 3.05;                         !- X,Y,Z Vertex 4 {m}

OS:Connection,
  {d367abd9-ef96-4df2-a4a5-60b4b9f5779f}, !- Handle
  {fca4d4d3-2721-42a9-a76c-f4b74826d7aa}, !- Name
  ,                                       !- Source Object
  11,                                     !- Outlet Port
  ,                                       !- Target Object
  2;                                      !- Inlet Port

OS:Space,
  {72459874-7e2c-4ecd-ae58-b2d96c368b31}, !- Handle
  Perimeter_ZN_1,                         !- Name
  ,                                       !- Space Type Name
  ,                                       !- Default Construction Set Name
  ,                                       !- Default Schedule Set Name
  0,                                      !- Direction of Relative North {deg}
  0,                                      !- X Origin {m}
  0,                                      !- Y Origin {m}
  0,                                      !- Z Origin {m}
  ,                                       !- Building Story Name
  ,                                       !- Thermal Zone Name
  Yes,                                    !- Part of Total Floor Area
  ;                                       !- Design Specification Outdoor Air Object Name

OS:Schedule:Compact,
  {14c34f8a-a821-437a-b3dc-4bda18f17ea2}, !- Handle
  HTGSETP_SCH_NO_OPTIMUM,                 !- Name
  {defb5f36-5247-41c5-b580-061aff5395e3}, !- Schedule Type Limits Name
  Through: 12/31,                         !- Field 1
  For: WeekDays,                          !- Field 2
  Until: 6:00,                            !- Field 3
  15.56,                                  !- Field 4
  Until: 7:00,                            !- Field 5
  21.11,                                  !- Field 6
  Until: 19:00,                           !- Field 7
  21.11,                                  !- Field 8
  Until: 24:00,                           !- Field 9
  15.56,                                  !- Field 10
  For: Weekends,                          !- Field 11
  Until: 24:00,                           !- Field 12
  15.56,                                  !- Field 13
  For: Holiday,                           !- Field 14
  Until: 24:00,                           !- Field 15
  15.56,                                  !- Field 16
  For: WinterDesignDay,                   !- Field 17
  Until: 24:00,                           !- Field 18
  21.11,                                  !- Field 19
  For: SummerDesignDay,                   !- Field 20
  Until: 24:00,                           !- Field 21
  15.56,                                  !- Field 22
  For: CustomDay1,                        !- Field 23
  Until: 24:00,                           !- Field 24
  15.56,                                  !- Field 25
  For: CustomDay2,                        !- Field 26
  Until: 24:00,                           !- Field 27
  15.56;                                  !- Field 28

OS:ScheduleTypeLimits,
  {defb5f36-5247-41c5-b580-061aff5395e3}, !- Handle
  Temperature,                            !- Name
  -60,                                    !- Lower Limit Value {BasedOnField A4}
  200,                                    !- Upper Limit Value {BasedOnField A4}
  CONTINUOUS,                             !- Numeric Type
  Temperature;                            !- Unit Type

OS:Schedule:Compact,
  {2975dc26-d819-4822-a852-f9cfbcd3b4b7}, !- Handle
  CLGSETP_SCH_NO_SETBACK,                 !- Name
  {defb5f36-5247-41c5-b580-061aff5395e3}, !- Schedule Type Limits Name
  Through: 12/31,                         !- Field 1
  For: WeekDays,                          !- Field 2
  Until: 6:00,                            !- Field 3
  23.89,                                  !- Field 4
  Until: 7:00,                            !- Field 5
  23.89,                                  !- Field 6
  Until: 18:00,                           !- Field 7
  23.89,                                  !- Field 8
  Until: 24:00,                           !- Field 9
  23.89,                                  !- Field 10
  For: Weekends,                          !- Field 11
  Until: 24:00,                           !- Field 12
  23.89,                                  !- Field 13
  For: Holiday,                           !- Field 14
  Until: 24:00,                           !- Field 15
  23.89,                                  !- Field 16
  For: WinterDesignDay,                   !- Field 17
  Until: 24:00,                           !- Field 18
  29.44,                                  !- Field 19
  For: SummerDesignDay,                   !- Field 20
  Until: 24:00,                           !- Field 21
  23.89,                                  !- Field 22
  For: CustomDay1,                        !- Field 23
  Until: 24:00,                           !- Field 24
  23.89,                                  !- Field 25
  For: CustomDay2,                        !- Field 26
  Until: 24:00,                           !- Field 27
  23.89;                                  !- Field 28

OS:Schedule:Compact,
  {4153de40-3b6d-4414-84d6-482687c8523b}, !- Handle
  HVACOperationSchd,                      !- Name
  {c8ccab0a-cf87-4869-95b4-bac7bfc6369a}, !- Schedule Type Limits Name
  Through: 12/31,                         !- Field 1
  For: Weekdays SummerDesignDay,          !- Field 2
  Until: 06:00,                           !- Field 3
  0.0,                                    !- Field 4
  Until: 19:00,                           !- Field 5
  1.0,                                    !- Field 6
  Until: 24:00,                           !- Field 7
  0.0,                                    !- Field 8
  For: Weedends WinterDesignDay,          !- Field 9
  Until: 24:00,                           !- Field 10
  0.0,                                    !- Field 11
  For: Holidays AllOtherDays,             !- Field 12
  Until: 24:00,                           !- Field 13
  0.0;                                    !- Field 14

OS:ScheduleTypeLimits,
  {c8ccab0a-cf87-4869-95b4-bac7bfc6369a}, !- Handle
  On/Off,                                 !- Name
  0,                                      !- Lower Limit Value {BasedOnField A4}
  1,                                      !- Upper Limit Value {BasedOnField A4}
  DISCRETE,                               !- Numeric Type
  Availability;                           !- Unit Type

OS:Schedule:Compact,
  {455437a7-b392-40ba-aa59-fc3e4aa417a2}, !- Handle
  INFIL_QUARTER_ON_SCH,                   !- Name
  {d03c880f-7b86-486e-9206-a48f8bb03a54}, !- Schedule Type Limits Name
  Through: 12/31,                         !- Field 1
  For: Weekdays SummerDesignDay,          !- Field 2
  Until: 07:00,                           !- Field 3
  1.0,                                    !- Field 4
  Until: 19:00,                           !- Field 5
  0.25,                                   !- Field 6
  Until: 24:00,                           !- Field 7
  1.0,                                    !- Field 8
  For: Saturday WinterDesignDay,          !- Field 9
  Until: 07:00,                           !- Field 10
  1.0,                                    !- Field 11
  Until: 18:00,                           !- Field 12
  0.25,                                   !- Field 13
  Until: 24:00,                           !- Field 14
  1.0,                                    !- Field 15
  For: Sunday Holidays AllOtherDays,      !- Field 16
  Until: 24:00,                           !- Field 17
  1.0;                                    !- Field 18

OS:ScheduleTypeLimits,
  {d03c880f-7b86-486e-9206-a48f8bb03a54}, !- Handle
  Fraction,                               !- Name
  0,                                      !- Lower Limit Value {BasedOnField A4}
  1,                                      !- Upper Limit Value {BasedOnField A4}
  CONTINUOUS;                             !- Numeric Type

OS:SubSurface,
  {5cf70f46-9488-45b0-b286-2fd3b9defdcb}, !- Handle
  Perimeter_ZN_1_wall_south_Window_1,     !- Name
  FixedWindow,                            !- Sub Surface Type
  ,                                       !- Construction Name
  {67ca62ce-e572-4957-8e6a-efb74825f170}, !- Surface Name
  ,                                       !- Outside Boundary Condition Object
  ,                                       !- View Factor to Ground
  ,                                       !- Shading Control Name
  ,                                       !- Frame and Divider Name
  1,                                      !- Multiplier
  ,                                       !- Number of Vertices
  1.39, 0, 2.424,                         !- X,Y,Z Vertex 1 {m}
  1.39, 0, 0.9,                           !- X,Y,Z Vertex 2 {m}
  3.22, 0, 0.9,                           !- X,Y,Z Vertex 3 {m}
  3.22, 0, 2.424;                         !- X,Y,Z Vertex 4 {m}

OS:Schedule:Compact,
  {24455924-031e-4278-9d9a-3a5627b5901e}, !- Handle
  Core_ZN Water Equipment Sensible fract sched, !- Name
  {d03c880f-7b86-486e-9206-a48f8bb03a54}, !- Schedule Type Limits Name
  Through: 12/31,                         !- Field 1
  For: AllDays,                           !- Field 2
  Until: 24:00,                           !- Field 3
  0.2;                                    !- Field 4

OS:Schedule:Compact,
  {57d30d10-ff8f-40b5-89ea-c177e998ed21}, !- Handle
  ALWAYS_OFF,                             !- Name
  {d03c880f-7b86-486e-9206-a48f8bb03a54}, !- Schedule Type Limits Name
  Through: 12/31,                         !- Field 1
  For: AllDays,                           !- Field 2
  Until: 24:00,                           !- Field 3
  0.0;                                    !- Field 4

OS:Surface,
  {f3b8b73c-8caf-40ab-b966-4fbde2e2f57a}, !- Handle
  Attic_roof_east,                        !- Name
  RoofCeiling,                            !- Surface Type
  ,                                       !- Construction Name
  {fb08bb0a-69e7-4942-8807-550e21855286}, !- Space Name
  Outdoors,                               !- Outside Boundary Condition
  ,                                       !- Outside Boundary Condition Object
  SunExposed,                             !- Sun Exposure
  WindExposed,                            !- Wind Exposure
  ,                                       !- View Factor to Ground
  ,                                       !- Number of Vertices
  18.46, 9.23, 6.33,                      !- X,Y,Z Vertex 1 {m}
  28.29, -0.6, 3.05,                      !- X,Y,Z Vertex 2 {m}
  28.29, 19.06, 3.05;                     !- X,Y,Z Vertex 3 {m}

OS:Connection,
  {b76c9257-2ba1-41ca-b928-7e4cece1fb38}, !- Handle
  {8ddc6125-8508-4ec6-bdad-ad6cfff54633}, !- Name
  ,                                       !- Source Object
  11,                                     !- Outlet Port
  ,                                       !- Target Object
  2;                                      !- Inlet Port

OS:Space,
  {fb08bb0a-69e7-4942-8807-550e21855286}, !- Handle
  Attic,                                  !- Name
  ,                                       !- Space Type Name
  ,                                       !- Default Construction Set Name
  ,                                       !- Default Schedule Set Name
  0,                                      !- Direction of Relative North {deg}
  0,                                      !- X Origin {m}
  0,                                      !- Y Origin {m}
  0,                                      !- Z Origin {m}
  ,                                       !- Building Story Name
  ,                                       !- Thermal Zone Name
  No;                                     !- Part of Total Floor Area

OS:Surface,
  {14eb925b-51a2-48c3-b571-9be87c158227}, !- Handle
  Attic_roof_north,                       !- Name
  RoofCeiling,                            !- Surface Type
  ,                                       !- Construction Name
  {fb08bb0a-69e7-4942-8807-550e21855286}, !- Space Name
  Outdoors,                               !- Outside Boundary Condition
  ,                                       !- Outside Boundary Condition Object
  SunExposed,                             !- Sun Exposure
  WindExposed,                            !- Wind Exposure
  ,                                       !- View Factor to Ground
  ,                                       !- Number of Vertices
  18.46, 9.23, 6.33,                      !- X,Y,Z Vertex 1 {m}
  28.29, 19.06, 3.05,                     !- X,Y,Z Vertex 2 {m}
  -0.6, 19.06, 3.05,                      !- X,Y,Z Vertex 3 {m}
  9.23, 9.23, 6.33;                       !- X,Y,Z Vertex 4 {m}

OS:Surface,
  {de9219d4-cc0d-45c1-b670-26d576f7fec4}, !- Handle
  Perimeter_ZN_2_ceiling,                 !- Name
  RoofCeiling,                            !- Surface Type
  ,                                       !- Construction Name
  {0ebdaea7-c6cb-452f-b121-7bbfcb1d95b8}, !- Space Name
  Surface,                                !- Outside Boundary Condition
  {5ba0e030-ad8e-4939-9022-603ea15873fd}, !- Outside Boundary Condition Object
  NoSun,                                  !- Sun Exposure
  NoWind,                                 !- Wind Exposure
  ,                                       !- View Factor to Ground
  ,                                       !- Number of Vertices
  27.69, 0, 3.05,                         !- X,Y,Z Vertex 1 {m}
  27.69, 18.46, 3.05,                     !- X,Y,Z Vertex 2 {m}
  22.69, 13.46, 3.05,                     !- X,Y,Z Vertex 3 {m}
  22.69, 5, 3.05;                         !- X,Y,Z Vertex 4 {m}

OS:Connection,
  {3e98f27d-1e5c-47bf-b1dd-320cc71dc280}, !- Handle
  {14e56078-538e-4195-bf4d-564485d8013c}, !- Name
  ,                                       !- Source Object
  11,                                     !- Outlet Port
  ,                                       !- Target Object
  2;                                      !- Inlet Port

OS:Space,
  {0ebdaea7-c6cb-452f-b121-7bbfcb1d95b8}, !- Handle
  Perimeter_ZN_2,                         !- Name
  ,                                       !- Space Type Name
  ,                                       !- Default Construction Set Name
  ,                                       !- Default Schedule Set Name
  0,                                      !- Direction of Relative North {deg}
  0,                                      !- X Origin {m}
  0,                                      !- Y Origin {m}
  0,                                      !- Z Origin {m}
  ,                                       !- Building Story Name
  ,                                       !- Thermal Zone Name
  Yes,                                    !- Part of Total Floor Area
  ;                                       !- Design Specification Outdoor Air Object Name

OS:Schedule:Compact,
  {99b2d74f-0012-4993-afa9-a970f38b1ce1}, !- Handle
  BLDG_OCC_SCH,                           !- Name
  {d03c880f-7b86-486e-9206-a48f8bb03a54}, !- Schedule Type Limits Name
  Through: 12/31,                         !- Field 1
  For: Weekdays,                          !- Field 2
  Until: 6:00,                            !- Field 3
  0.0,                                    !- Field 4
  Until: 7:00,                            !- Field 5
  0.11,                                   !- Field 6
  Until: 8:00,                            !- Field 7
  0.21,                                   !- Field 8
  Until: 12:00,                           !- Field 9
  1.0,                                    !- Field 10
  Until: 13:00,                           !- Field 11
  0.53,                                   !- Field 12
  Until: 17:00,                           !- Field 13
  1.0,                                    !- Field 14
  Until: 18:00,                           !- Field 15
  0.32,                                   !- Field 16
  Until: 22:00,                           !- Field 17
  0.11,                                   !- Field 18
  Until: 23:00,                           !- Field 19
  0.05,                                   !- Field 20
  Until: 24:00,                           !- Field 21
  0.0,                                    !- Field 22
  For: Weekends,                          !- Field 23
  Until: 24:00,                           !- Field 24
  0.0,                                    !- Field 25
  For: Holiday,                           !- Field 26
  Until: 24:00,                           !- Field 27
  0.0,                                    !- Field 28
  For: WinterDesignDay,                   !- Field 29
  Until: 24:00,                           !- Field 30
  0.0,                                    !- Field 31
  For: SummerDesignDay,                   !- Field 32
  Until: 24:00,                           !- Field 33
  1.0,                                    !- Field 34
  For: CustomDay1,                        !- Field 35
  Until: 24:00,                           !- Field 36
  0.0,                                    !- Field 37
  For: CustomDay2,                        !- Field 38
  Until: 24:00,                           !- Field 39
  0.0;                                    !- Field 40

OS:Schedule:Compact,
  {6899d7df-be41-4d14-ad36-a04144c9c011}, !- Handle
  ACTIVITY_SCH,                           !- Name
  {ee03d7ed-8b4d-4a36-82b4-bcc098d6adef}, !- Schedule Type Limits Name
  Through: 12/31,                         !- Field 1
  For: AllDays,                           !- Field 2
  Until: 24:00,                           !- Field 3
  120.;                                   !- Field 4

OS:ScheduleTypeLimits,
  {1ccce7a4-b515-4dce-8e0b-323bcd79c524}, !- Handle
  {692005ce-05f3-45fa-ab0f-e927de2d0db3}; !- Name

OS:ScheduleTypeLimits,
  {ee03d7ed-8b4d-4a36-82b4-bcc098d6adef}, !- Handle
  ActivityLevel,                          !- Name
  0,                                      !- Lower Limit Value {BasedOnField A4}
  ,                                       !- Upper Limit Value {BasedOnField A4}
  Continuous,                             !- Numeric Type
  ActivityLevel;                          !- Unit Type

OS:Surface,
  {e6e6213c-27e3-4780-914d-aab86a026932}, !- Handle
  Perimeter_ZN_2_wall_north,              !- Name
  Wall,                                   !- Surface Type
  ,                                       !- Construction Name
  {0ebdaea7-c6cb-452f-b121-7bbfcb1d95b8}, !- Space Name
  Surface,                                !- Outside Boundary Condition
  {294e6a4a-4754-4ea0-b450-586c284d51ae}, !- Outside Boundary Condition Object
  NoSun,                                  !- Sun Exposure
  NoWind,                                 !- Wind Exposure
  ,                                       !- View Factor to Ground
  ,                                       !- Number of Vertices
  27.69, 18.46, 3.05,                     !- X,Y,Z Vertex 1 {m}
  27.69, 18.46, 0,                        !- X,Y,Z Vertex 2 {m}
  22.69, 13.46, 0,                        !- X,Y,Z Vertex 3 {m}
  22.69, 13.46, 3.05;                     !- X,Y,Z Vertex 4 {m}

OS:Surface,
  {5ad6d532-e8de-4604-a79c-c900df2aa730}, !- Handle
  Perimeter_ZN_3_wall_south,              !- Name
  Wall,                                   !- Surface Type
  ,                                       !- Construction Name
  {bb97cae6-ab6e-4ca9-a862-a3e532ee5e5d}, !- Space Name
  Surface,                                !- Outside Boundary Condition
  {7f4227ad-335c-4683-9a99-6c804048153c}, !- Outside Boundary Condition Object
  NoSun,                                  !- Sun Exposure
  NoWind,                                 !- Wind Exposure
  ,                                       !- View Factor to Ground
  ,                                       !- Number of Vertices
  5, 13.46, 3.05,                         !- X,Y,Z Vertex 1 {m}
  5, 13.46, 0,                            !- X,Y,Z Vertex 2 {m}
  22.69, 13.46, 0,                        !- X,Y,Z Vertex 3 {m}
  22.69, 13.46, 3.05;                     !- X,Y,Z Vertex 4 {m}

OS:Connection,
  {4d957a31-f699-4eae-93e7-35cb0402bdc3}, !- Handle
  {556b787e-14ea-444a-8f28-da77ff85692d}, !- Name
  ,                                       !- Source Object
  11,                                     !- Outlet Port
  ,                                       !- Target Object
  2;                                      !- Inlet Port

OS:Space,
  {bb97cae6-ab6e-4ca9-a862-a3e532ee5e5d}, !- Handle
  Perimeter_ZN_3,                         !- Name
  ,                                       !- Space Type Name
  ,                                       !- Default Construction Set Name
  ,                                       !- Default Schedule Set Name
  0,                                      !- Direction of Relative North {deg}
  0,                                      !- X Origin {m}
  0,                                      !- Y Origin {m}
  0,                                      !- Z Origin {m}
  ,                                       !- Building Story Name
  ,                                       !- Thermal Zone Name
  Yes;                                    !- Part of Total Floor Area

OS:Connection,
  {99cfc414-45c1-4be7-8757-3ae36bc2af42}, !- Handle
  {96671398-0007-4bc0-8470-144aceb20b70}, !- Name
  ,                                       !- Source Object
  11,                                     !- Outlet Port
  ,                                       !- Target Object
  2;                                      !- Inlet Port

OS:Space,
  {f9fb4430-2ed2-4cfb-bf10-1172712402a2}, !- Handle
  Perimeter_ZN_4,                         !- Name
  ,                                       !- Space Type Name
  ,                                       !- Default Construction Set Name
  ,                                       !- Default Schedule Set Name
  0,                                      !- Direction of Relative North {deg}
  0,                                      !- X Origin {m}
  0,                                      !- Y Origin {m}
  0,                                      !- Z Origin {m}
  ,                                       !- Building Story Name
  ,                                       !- Thermal Zone Name
  Yes;                                    !- Part of Total Floor Area

OS:ScheduleTypeLimits,
  {313693c8-e5dc-4703-be4f-f64932fa44ea}, !- Handle
  {45396397-854f-4971-8c9b-d1db7f976cca}; !- Name

OS:Surface,
  {76eef8b9-8d45-4e4a-a6e8-a678fd658045}, !- Handle
  Perimeter_ZN_2_wall_west,               !- Name
  Wall,                                   !- Surface Type
  ,                                       !- Construction Name
  {0ebdaea7-c6cb-452f-b121-7bbfcb1d95b8}, !- Space Name
  Surface,                                !- Outside Boundary Condition
  {72a1b6a0-5c0f-4a8b-a8d5-81bef0ff1769}, !- Outside Boundary Condition Object
  NoSun,                                  !- Sun Exposure
  NoWind,                                 !- Wind Exposure
  ,                                       !- View Factor to Ground
  ,                                       !- Number of Vertices
  22.69, 13.46, 3.05,                     !- X,Y,Z Vertex 1 {m}
  22.69, 13.46, 0,                        !- X,Y,Z Vertex 2 {m}
  22.69, 5, 0,                            !- X,Y,Z Vertex 3 {m}
  22.69, 5, 3.05;                         !- X,Y,Z Vertex 4 {m}

OS:Surface,
  {9f3c4b24-4e8e-4b4e-932c-0c0aeb12edab}, !- Handle
  Perimeter_ZN_4_ceiling,                 !- Name
  RoofCeiling,                            !- Surface Type
  ,                                       !- Construction Name
  {f9fb4430-2ed2-4cfb-bf10-1172712402a2}, !- Space Name
  Surface,                                !- Outside Boundary Condition
  {b890eeac-5336-4ed2-9467-56785822dd86}, !- Outside Boundary Condition Object
  NoSun,                                  !- Sun Exposure
  NoWind,                                 !- Wind Exposure
  ,                                       !- View Factor to Ground
  ,                                       !- Number of Vertices
  0, 0, 3.05,                             !- X,Y,Z Vertex 1 {m}
  5, 5, 3.05,                             !- X,Y,Z Vertex 2 {m}
  5, 13.46, 3.05,                         !- X,Y,Z Vertex 3 {m}
  0, 18.46, 3.05;                         !- X,Y,Z Vertex 4 {m}

OS:Meter,
  {abc5d571-df7f-47b1-bf8b-892a6dadede3}, !- Handle
  Gas:Facility,                           !- Name
  Hourly,                                 !- Reporting Frequency
  True,                                   !- Meter File Only
  False;                                  !- Cumulative

OS:Schedule:Compact,
  {169fddde-9a4b-4d5f-8b65-f65552d41694}, !- Handle
  BLDG_LIGHT_SCH,                         !- Name
  {d03c880f-7b86-486e-9206-a48f8bb03a54}, !- Schedule Type Limits Name
  Through: 12/31,                         !- Field 1
  For: Weekdays,                          !- Field 2
  Until: 5:00,                            !- Field 3
  0.18,                                   !- Field 4
  Until: 6:00,                            !- Field 5
  0.23,                                   !- Field 6
  Until: 7:00,                            !- Field 7
  0.187059,                               !- Field 8
  Until: 8:00,                            !- Field 9
  0.341586,                               !- Field 10
  Until: 12:00,                           !- Field 11
  0.73197,                                !- Field 12
  Until: 13:00,                           !- Field 13
  0.65064,                                !- Field 14
  Until: 17:00,                           !- Field 15
  0.73197,                                !- Field 16
  Until: 18:00,                           !- Field 17
  0.496113,                               !- Field 18
  Until: 20:00,                           !- Field 19
  0.341586,                               !- Field 20
  Until: 22:00,                           !- Field 21
  0.260256,                               !- Field 22
  Until: 23:00,                           !- Field 23
  0.187059,                               !- Field 24
  Until: 24:00,                           !- Field 25
  0.18,                                   !- Field 26
  For: Weekends,                          !- Field 27
  Until: 24:00,                           !- Field 28
  0.18,                                   !- Field 29
  For: Holiday,                           !- Field 30
  Until: 24:00,                           !- Field 31
  0.18,                                   !- Field 32
  For: WinterDesignDay,                   !- Field 33
  Until: 24:00,                           !- Field 34
  0,                                      !- Field 35
  For: SummerDesignDay,                   !- Field 36
  Until: 24:00,                           !- Field 37
  1,                                      !- Field 38
  For: CustomDay1,                        !- Field 39
  Until: 24:00,                           !- Field 40
  0,                                      !- Field 41
  For: CustomDay2,                        !- Field 42
  Until: 24:00,                           !- Field 43
  0;                                      !- Field 44

OS:Schedule:Compact,
  {7d7885cf-420f-4b29-880e-c2e7095e51ed}, !- Handle
  ALWAYS_ON,                              !- Name
  {d03c880f-7b86-486e-9206-a48f8bb03a54}, !- Schedule Type Limits Name
  Through: 12/31,                         !- Field 1
  For: AllDays,                           !- Field 2
  Until: 24:00,                           !- Field 3
  1.0;                                    !- Field 4

OS:ScheduleTypeLimits,
  {50748b4b-d8bf-47f5-9450-3430fad5c333}, !- Handle
  {e256cd5b-201e-4a05-9941-365ac9242d70}; !- Name

OS:Schedule:Compact,
  {478cb8d3-75ea-4a19-8d45-832e77c326cf}, !- Handle