
OS:Version,
  {d2c5e2d7-48a3-4ea9-855f-df476a404764}, !- Handle
  1.7.0;                                  !- Version Identifier

OS:Surface,
  {0768fb4f-647c-41d9-82c2-3dba23a6766a}, !- Handle
  Core_Retail_Wall_South_3,               !- Name
  Wall,                                   !- Surface Type
  ,                                       !- Construction Name
  {22b9afce-9b38-43c5-88a1-60e195f7bcaf}, !- Space Name
  Surface,                                !- Outside Boundary Condition
  {53b4dbb2-87a2-472f-95fe-dd3245c373e3}, !- Outside Boundary Condition Object
  NoSun,                                  !- Sun Exposure
  NoWind,                                 !- Wind Exposure
  ,                                       !- View Factor to Ground
  ,                                       !- Number of Vertices
  29.135, 0, 6.096,                       !- X,Y,Z Vertex 1 {m}
  29.135, 0, 0,                           !- X,Y,Z Vertex 2 {m}
  54.27, 0, 0,                            !- X,Y,Z Vertex 3 {m}
  54.27, 0, 6.096;                        !- X,Y,Z Vertex 4 {m}

OS:Connection,
  {9ed1e830-313f-4c9b-a869-314b53d9c678}, !- Handle
  {f9bcdfb4-47f9-44ce-8ff4-5af8d0c7857f}, !- Name
  ,                                       !- Source Object
  11,                                     !- Outlet Port
  ,                                       !- Target Object
  2;                                      !- Inlet Port

OS:Space,
  {22b9afce-9b38-43c5-88a1-60e195f7bcaf}, !- Handle
  Core_Retail,                            !- Name
  ,                                       !- Space Type Name
  ,                                       !- Default Construction Set Name
  ,                                       !- Default Schedule Set Name
  0,                                      !- Direction of Relative North {deg}
  0,                                      !- X Origin {m}
  6,                                      !- Y Origin {m}
  0,                                      !- Z Origin {m}
  ,                                       !- Building Story Name
  ,                                       !- Thermal Zone Name
  Yes;                                    !- Part of Total Floor Area

OS:Surface,
  {19011b25-0bc5-44ad-8ab2-a6038360091a}, !- Handle
  Front_Entry_Wall_East,                  !- Name
  Wall,                                   !- Surface Type
  ,                                       !- Construction Name
  {6d1bd171-3a6b-4cd8-be75-61953bb1e26e}, !- Space Name
  Surface,                                !- Outside Boundary Condition
  {062fe1d3-6b41-400a-bad3-4def607a2e67}, !- Outside Boundary Condition Object
  NoSun,                                  !- Sun Exposure
  NoWind,                                 !- Wind Exposure
  ,                                       !- View Factor to Ground
  ,                                       !- Number of Vertices
  4, 0, 6.096,                            !- X,Y,Z Vertex 1 {m}
  4, 0, 0,                                !- X,Y,Z Vertex 2 {m}
  4, 3, 0,                                !- X,Y,Z Vertex 3 {m}
  4, 3, 6.096;                            !- X,Y,Z Vertex 4 {m}

OS:Connection,
  {f54fcde9-58d9-4e80-8b21-b3dcca167d10}, !- Handle
  {87524a93-515c-45a7-aceb-24c5dcd9057d}, !- Name
  ,                                       !- Source Object
  11,                                     !- Outlet Port
  ,                                       !- Target Object
  2;                                      !- Inlet Port

OS:Space,
  {6d1bd171-3a6b-4cd8-be75-61953bb1e26e}, !- Handle
  Front_Entry,                            !- Name
  ,                                       !- Space Type Name
  ,                                       !- Default Construction Set Name
  ,                                       !- Default Schedule Set Name
  0,                                      !- Direction of Relative North {deg}
  25.135,                                 !- X Origin {m}
  0,                                      !- Y Origin {m}
  0,                                      !- Z Origin {m}
  ,                                       !- Building Story Name
  ,                                       !- Thermal Zone Name
  Yes;                                    !- Part of Total Floor Area

OS:Surface,
  {055c6bd1-6efb-4417-b59c-3133bd155210}, !- Handle
  Point_Of_Sale_Roof,                     !- Name
  RoofCeiling,                            !- Surface Type
  ,                                       !- Construction Name
  {9b1a23e3-d6d3-4b8d-afc1-99b6008245d5}, !- Space Name
  Outdoors,                               !- Outside Boundary Condition
  ,                                       !- Outside Boundary Condition Object
  SunExposed,                             !- Sun Exposure
  WindExposed,                            !- Wind Exposure
  ,                                       !- View Factor to Ground
  ,                                       !- Number of Vertices
  25.135, 0, 6.096,                       !- X,Y,Z Vertex 1 {m}
  25.135, 6, 6.096,                       !- X,Y,Z Vertex 2 {m}
  0, 6, 6.096,                            !- X,Y,Z Vertex 3 {m}
  0, 0, 6.096;                            !- X,Y,Z Vertex 4 {m}

OS:Connection,
  {fed59de7-3176-4e9a-9e6b-cb95c4e07b64}, !- Handle
  {f7833b09-e79d-4424-affd-d77e74701997}, !- Name
  ,                                       !- Source Object
  11,                                     !- Outlet Port
  ,                                       !- Target Object
  2;                                      !- Inlet Port

OS:Space,
  {9b1a23e3-d6d3-4b8d-afc1-99b6008245d5}, !- Handle
  Point_Of_Sale,                          !- Name
  ,                                       !- Space Type Name
  ,                                       !- Default Construction Set Name
  ,                                       !- Default Schedule Set Name
  0,                                      !- Direction of Relative North {deg}
  0,                                      !- X Origin {m}
  0,                                      !- Y Origin {m}
  0,                                      !- Z Origin {m}
  ,                                       !- Building Story Name
  ,                                       !- Thermal Zone Name
  Yes;                                    !- Part of Total Floor Area

OS:Connection,
  {2ca25274-28ff-4c0c-a95b-c5bcbb5f91bd}, !- Handle
  {5472260f-fd71-4604-83b7-018541b291ba}, !- Name
  ,                                       !- Source Object
  11,                                     !- Outlet Port
  ,                                       !- Target Object
  2;                                      !- Inlet Port

OS:Space,
  {f5a612a5-252d-464f-9955-cc4d4af0e2be}, !- Handle
  Back_Space,                             !- Name
  ,                                       !- Space Type Name
  ,                                       !- Default Construction Set Name
  ,                                       !- Default Schedule Set Name
  0,                                      !- Direction of Relative North {deg}
  0,                                      !- X Origin {m}
  35.27,                                  !- Y Origin {m}
  0,                                      !- Z Origin {m}
  ,                                       !- Building Story Name
  ,                                       !- Thermal Zone Name
  Yes;                                    !- Part of Total Floor Area

OS:Surface,
  {6fd01af4-6328-4c2c-8b5d-d9159feabb97}, !- Handle
  Front_Entry_Roof,                       !- Name
  RoofCeiling,                            !- Surface Type
  ,                                       !- Construction Name
  {6d1bd171-3a6b-4cd8-be75-61953bb1e26e}, !- Space Name
  Outdoors,                               !- Outside Boundary Condition
  ,                                       !- Outside Boundary Condition Object
  SunExposed,                             !- Sun Exposure
  WindExposed,                            !- Wind Exposure
  ,                                       !- View Factor to Ground
  ,                                       !- Number of Vertices
  4, 0, 6.096,                            !- X,Y,Z Vertex 1 {m}
  4, 3, 6.096,                            !- X,Y,Z Vertex 2 {m}
  0, 3, 6.096,                            !- X,Y,Z Vertex 3 {m}
  0, 0, 6.096;                            !- X,Y,Z Vertex 4 {m}

OS:Surface,
  {200a7e05-0a44-42ea-b0c5-8f830e331182}, !- Handle
  Back_Space_Wall_South,                  !- Name
  Wall,                                   !- Surface Type
  ,                                       !- Construction Name
  {f5a612a5-252d-464f-9955-cc4d4af0e2be}, !- Space Name
  Surface,                                !- Outside Boundary Condition
  {450a04d9-73a8-4591-8c3e-1cdf64b2759c}, !- Outside Boundary Condition Object
  NoSun,                                  !- Sun Exposure
  NoWind,                                 !- Wind Exposure
  ,                                       !- View Factor to Ground
  ,                                       !- Number of Vertices
  0, 0, 6.096,                            !- X,Y,Z Vertex 1 {m}
  0, 0, 0,                                !- X,Y,Z Vertex 2 {m}
  54.27, 0, 0,                            !- X,Y,Z Vertex 3 {m}
  54.27, 0, 6.096;                        !- X,Y,Z Vertex 4 {m}

OS:SubSurface,
  {a04b87e9-86d3-40c0-9f79-03442cbe6425}, !- Handle
  Skylights_r4c1,                         !- Name
  Skylight,                               !- Sub Surface Type
  ,                                       !- Construction Name
  {98d1696a-01ee-4d41-b036-9547b30bc7c6}, !- Surface Name
  ,                                       !- Outside Boundary Condition Object
  ,                                       !- View Factor to Ground
  ,                                       !- Shading Control Name
  ,                                       !- Frame and Divider Name
  ,                                       !- Multiplier
  ,                                       !- Number of Vertices
  4.572, 24.698, 6.096,                   !- X,Y,Z Vertex 1 {m}
  4.572, 25.9172, 6.096,                  !- X,Y,Z Vertex 2 {m}
  3.3528, 25.9172, 6.096,                 !- X,Y,Z Vertex 3 {m}
  3.3528, 24.698, 6.096;                  !- X,Y,Z Vertex 4 {m}

OS:Surface,
  {98d1696a-01ee-4d41-b036-9547b30bc7c6}, !- Handle
  Core_Retail_Roof,                       !- Name
  RoofCeiling,                            !- Surface Type
  ,                                       !- Construction Name
  {22b9afce-9b38-43c5-88a1-60e195f7bcaf}, !- Space Name
  Outdoors,                               !- Outside Boundary Condition
  ,                                       !- Outside Boundary Condition Object
  SunExposed,                             !- Sun Exposure
  WindExposed,                            !- Wind Exposure
  ,                                       !- View Factor to Ground
  ,                                       !- Number of Vertices
  29.135, -3, 6.096,                      !- X,Y,Z Vertex 1 {m}
  29.135, 0, 6.096,                       !- X,Y,Z Vertex 2 {m}
  54.27, 0, 6.096,                        !- X,Y,Z Vertex 3 {m}
  54.27, 29.27, 6.096,                    !- X,Y,Z Vertex 4 {m}
  0, 29.27, 6.096,                        !- X,Y,Z Vertex 5 {m}
  0, 0, 6.096,                            !- X,Y,Z Vertex 6 {m}
  25.135, 0, 6.096,                       !- X,Y,Z Vertex 7 {m}
  25.135, -3, 6.096;                      !- X,Y,Z Vertex 8 {m}

OS:WindowProperty:FrameAndDivider,
  {78dc6b59-eb69-46ad-a422-5f4ccd2cd28a}, !- Handle
  Skylight_Frame,                         !- Name
  0.7129,                                 !- Frame Width {m}
  ,                                       !- Frame Outside Projection {m}
  ,                                       !- Frame Inside Projection {m}
  283.91,                                 !- Frame Conductance {W/m2-K}
  1,                                      !- Ratio of Frame-Edge Glass Conductance to Center-Of-Glass Conductance
  0.7,                                    !- Frame Solar Absorptance
  0.7,                                    !- Frame Visible Absorptance
  0.9,                                    !- Frame Thermal Hemispherical Emissivity
  ,                                       !- Divider Type
  ,                                       !- Divider Width {m}
  ,                                       !- Number of Horizontal Dividers
  ,                                       !- Number of Vertical Dividers
  ,                                       !- Divider Outside Projection {m}
  ,                                       !- Divider Inside Projection {m}
  ,                                       !- Divider Conductance {W/m2-K}
  1,                                      !- Ratio of Divider-Edge Glass Conductance to Center-Of-Glass Conductance
  ,                                       !- Divider Solar Absorptance
  ,                                       !- Divider Visible Absorptance
  0.9;                                    !- Divider Thermal Hemispherical Emissivity

OS:SubSurface,
  {40b12109-b23b-4f4a-80f9-f33202347df9}, !- Handle
  Skylights_r4c3,                         !- Name
  Skylight,                               !- Sub Surface Type
  ,                                       !- Construction Name
  {98d1696a-01ee-4d41-b036-9547b30bc7c6}, !- Surface Name
  ,                                       !- Outside Boundary Condition Object
  ,                                       !- View Factor to Ground
  ,                                       !- Shading Control Name
  ,                                       !- Frame and Divider Name
  ,                                       !- Multiplier
  ,                                       !- Number of Vertices
  17.3736, 24.698, 6.096,                 !- X,Y,Z Vertex 1 {m}
  17.3736, 25.9172, 6.096,                !- X,Y,Z Vertex 2 {m}
  16.1544, 25.9172, 6.096,                !- X,Y,Z Vertex 3 {m}
  16.1544, 24.698, 6.096;                 !- X,Y,Z Vertex 4 {m}

OS:Surface,
  {bdb5d2a6-bece-4514-a3cd-839386f0eebd}, !- Handle
  Back_Space_Wall_West,                   !- Name
  Wall,                                   !- Surface Type
  ,                                       !- Construction Name
  {f5a612a5-252d-464f-9955-cc4d4af0e2be}, !- Space Name
  Outdoors,                               !- Outside Boundary Condition
  ,                                       !- Outside Boundary Condition Object
  SunExposed,                             !- Sun Exposure
  WindExposed,                            !- Wind Exposure
  ,                                       !- View Factor to Ground
  ,                                       !- Number of Vertices
  0, 7, 6.096,                            !- X,Y,Z Vertex 1 {m}
  0, 7, 0,                                !- X,Y,Z Vertex 2 {m}
  0, 0, 0,                                !- X,Y,Z Vertex 3 {m}
  0, 0, 6.096;                            !- X,Y,Z Vertex 4 {m}

OS:Surface,
  {38d33c73-f310-492f-afeb-d840f80dbe1c}, !- Handle
  Point_Of_Sale_Wall_West,                !- Name
  Wall,                                   !- Surface Type
  ,                                       !- Construction Name
  {9b1a23e3-d6d3-4b8d-afc1-99b6008245d5}, !- Space Name
  Outdoors,                               !- Outside Boundary Condition
  ,                                       !- Outside Boundary Condition Object
  SunExposed,                             !- Sun Exposure
  WindExposed,                            !- Wind Exposure
  ,                                       !- View Factor to Ground
  ,                                       !- Number of Vertices
  0, 6, 6.096,                            !- X,Y,Z Vertex 1 {m}
  0, 6, 0,                                !- X,Y,Z Vertex 2 {m}
  0, 0, 0,                                !- X,Y,Z Vertex 3 {m}
  0, 0, 6.096;                            !- X,Y,Z Vertex 4 {m}

OS:Surface,
  {50539a35-3d67-49a3-97c0-415227c1d8a3}, !- Handle
  Core_Retail_Wall_East_2,                !- Name
  Wall,                                   !- Surface Type
  ,                                       !- Construction Name
  {22b9afce-9b38-43c5-88a1-60e195f7bcaf}, !- Space Name
  Outdoors,                               !- Outside Boundary Condition
  ,                                       !- Outside Boundary Condition Object
  SunExposed,                             !- Sun Exposure
  WindExposed,                            !- Wind Exposure
  ,                                       !- View Factor to Ground
  ,                                       !- Number of Vertices
  54.27, 0, 6.096,                        !- X,Y,Z Vertex 1 {m}
  54.27, 0, 0,                            !- X,Y,Z Vertex 2 {m}
  54.27, 29.27, 0,                        !- X,Y,Z Vertex 3 {m}
  54.27, 29.27, 6.096;                    !- X,Y,Z Vertex 4 {m}

OS:Surface,
  {e0aa9feb-1e81-4af4-98ad-845b14130c7b}, !- Handle
  Front_Retail_Walll_East,                !- Name
  Wall,                                   !- Surface Type
  ,                                       !- Construction Name
  {5353c198-d890-46b1-a97d-282b8ad10057}, !- Space Name
  Outdoors,                               !- Outside Boundary Condition
  ,                                       !- Outside Boundary Condition Object
  SunExposed,                             !- Sun Exposure
  WindExposed,                            !- Wind Exposure
  ,                                       !- View Factor to Ground
  ,                                       !- Number of Vertices
  25.135, 0, 6.096,                       !- X,Y,Z Vertex 1 {m}
  25.135, 0, 0,                           !- X,Y,Z Vertex 2 {m}
  25.135, 6, 0,                           !- X,Y,Z Vertex 3 {m}
  25.135, 6, 6.096;                       !- X,Y,Z Vertex 4 {m}

OS:Connection,
  {cc7fdccd-2eeb-47d5-b2ef-5182e9030537}, !- Handle
  {6a5f8ee5-a9cc-44bc-9913-c2121a1ca1a4}, !- Name
  ,                                       !- Source Object
  11,                                     !- Outlet Port
  ,                                       !- Target Object
  2;                                      !- Inlet Port

OS:Space,
  {5353c198-d890-46b1-a97d-282b8ad10057}, !- Handle
  Front_Retail,                           !- Name
  ,                                       !- Space Type Name
  ,                                       !- Default Construction Set Name
  ,                                       !- Default Schedule Set Name
  0,                                      !- Direction of Relative North {deg}
  29.135,                                 !- X Origin {m}
  0,                                      !- Y Origin {m}
  0,                                      !- Z Origin {m}
  ,                                       !- Building Story Name
  ,                                       !- Thermal Zone Name
  Yes;                                    !- Part of Total Floor Area

OS:Surface,
  {9009937c-f482-4672-89a1-f7cf54846eba}, !- Handle
  Point_Of_Sale_Wall_South,               !- Name
  Wall,                                   !- Surface Type
  ,                                       !- Construction Name
  {9b1a23e3-d6d3-4b8d-afc1-99b6008245d5}, !- Space Name
  Outdoors,                               !- Outside Boundary Condition
  ,                                       !- Outside Boundary Condition Object
  SunExposed,                             !- Sun Exposure
  WindExposed,                            !- Wind Exposure
  ,                                       !- View Factor to Ground
  ,                                       !- Number of Vertices
  0, 0, 6.096,                            !- X,Y,Z Vertex 1 {m}
  0, 0, 0,                                !- X,Y,Z Vertex 2 {m}
  25.135, 0, 0,                           !- X,Y,Z Vertex 3 {m}
  25.135, 0, 6.096;                       !- X,Y,Z Vertex 4 {m}

OS:Surface,
  {53e2c849-9447-4cf7-b203-6563f2c1450f}, !- Handle
  Back_Space_Wall_North,                  !- Name
  Wall,                                   !- Surface Type
  ,                                       !- Construction Name
  {f5a612a5-252d-464f-9955-cc4d4af0e2be}, !- Space Name
  Outdoors,                               !- Outside Boundary Condition
  ,                                       !- Outside Boundary Condition Object
  SunExposed,                             !- Sun Exposure
  WindExposed,                            !- Wind Exposure
  ,                                       !- View Factor to Ground
  ,                                       !- Number of Vertices
  54.27, 7, 6.096,                        !- X,Y,Z Vertex 1 {m}
  54.27, 7, 0,                            !- X,Y,Z Vertex 2 {m}
  0, 7, 0,                                !- X,Y,Z Vertex 3 {m}
  0, 7, 6.096;                            !- X,Y,Z Vertex 4 {m}

OS:SubSurface,
  {77bfd938-2b97-4177-8f6e-209210c078f0}, !- Handle
  Skylights_r4c4,                         !- Name
  Skylight,                               !- Sub Surface Type
  ,                                       !- Construction Name
  {98d1696a-01ee-4d41-b036-9547b30bc7c6}, !- Surface Name
  ,                                       !- Outside Boundary Condition Object
  ,                                       !- View Factor to Ground
  ,                                       !- Shading Control Name
  ,                                       !- Frame and Divider Name
  ,                                       !- Multiplier
  ,                                       !- Number of Vertices
  23.7822, 24.698, 6.096,                 !- X,Y,Z Vertex 1 {m}
  23.7822, 25.9172, 6.096,                !- X,Y,Z Vertex 2 {m}
  22.563, 25.9172, 6.096,                 !- X,Y,Z Vertex 3 {m}
  22.563, 24.698, 6.096;                  !- X,Y,Z Vertex 4 {m}

OS:Surface,
  {d7e2be7b-11ce-49f0-b498-da3b57df299f}, !- Handle
  Point_Of_Sale_Wall_East_1,              !- Name
  Wall,                                   !- Surface Type
  ,                                       !- Construction Name
  {9b1a23e3-d6d3-4b8d-afc1-99b6008245d5}, !- Space Name
  Surface,                                !- Outside Boundary Condition
  {6409682b-48a4-42af-9a19-471b9a404c49}, !- Outside Boundary Condition Object
  NoSun,                                  !- Sun Exposure
  NoWind,                                 !- Wind Exposure
  ,                                       !- View Factor to Ground
  ,                                       !- Number of Vertices
  25.135, 0, 6.096,                       !- X,Y,Z Vertex 1 {m}
  25.135, 0, 0,                           !- X,Y,Z Vertex 2 {m}
  25.135, 3, 0,                           !- X,Y,Z Vertex 3 {m}
  25.135, 3, 6.096;                       !- X,Y,Z Vertex 4 {m}

OS:SubSurface,
  {0e27b567-244e-43c3-aa3b-440e3b928fbc}, !- Handle
  Skylights_r3c2,                         !- Name
  Skylight,                               !- Sub Surface Type
  ,                                       !- Construction Name
  {98d1696a-01ee-4d41-b036-9547b30bc7c6}, !- Surface Name
  ,                                       !- Outside Boundary Condition Object
  ,                                       !- View Factor to Ground
  ,                                       !- Shading Control Name
  ,                                       !- Frame and Divider Name
  ,                                       !- Multiplier
  ,                                       !- Number of Vertices
  10.9728, 17.5768, 6.096,                !- X,Y,Z Vertex 1 {m}
  10.9728, 18.796, 6.096,                 !- X,Y,Z Vertex 2 {m}
  9.7536, 18.796, 6.096,                  !- X,Y,Z Vertex 3 {m}
  9.7536, 17.5768, 6.096;                 !- X,Y,Z Vertex 4 {m}

OS:SubSurface,
  {bc7c3a5d-e5fa-4097-aa55-dbe956385f24}, !- Handle
  Skylights_r2c2,                         !- Name
  Skylight,                               !- Sub Surface Type
  ,                                       !- Construction Name
  {98d1696a-01ee-4d41-b036-9547b30bc7c6}, !- Surface Name
  ,                                       !- Outside Boundary Condition Object
  ,                                       !- View Factor to Ground
  ,                                       !- Shading Control Name
  ,                                       !- Frame and Divider Name
  ,                                       !- Multiplier
  ,                                       !- Number of Vertices
  10.9728, 10.4648, 6.096,                !- X,Y,Z Vertex 1 {m}
  10.9728, 11.684, 6.096,                 !- X,Y,Z Vertex 2 {m}
  9.7536, 11.684, 6.096,                  !- X,Y,Z Vertex 3 {m}
  9.7536, 10.4648, 6.096;                 !- X,Y,Z Vertex 4 {m}

OS:Surface,
  {6409682b-48a4-42af-9a19-471b9a404c49}, !- Handle
  Front_Entry_Wall_West,                  !- Name
  Wall,                                   !- Surface Type
  ,                                       !- Construction Name
  {6d1bd171-3a6b-4cd8-be75-61953bb1e26e}, !- Space Name
  Surface,                                !- Outside Boundary Condition
  {d7e2be7b-11ce-49f0-b498-da3b57df299f}, !- Outside Boundary Condition Object
  NoSun,                                  !- Sun Exposure
  NoWind,                                 !- Wind Exposure
  ,                                       !- View Factor to Ground
  ,                                       !- Number of Vertices
  0, 3, 6.096,                            !- X,Y,Z Vertex 1 {m}
  0, 3, 0,                                !- X,Y,Z Vertex 2 {m}
  0, 0, 0,                                !- X,Y,Z Vertex 3 {m}
  0, 0, 6.096;                            !- X,Y,Z Vertex 4 {m}

OS:Surface,
  {7a125b55-3cd8-46f2-9078-737b3ef755cb}, !- Handle
  Back_Space_Floor,                       !- Name
  Floor,                                  !- Surface Type
  ,                                       !- Construction Name
  {f5a612a5-252d-464f-9955-cc4d4af0e2be}, !- Space Name
  Ground,                                 !- Outside Boundary Condition
  ,                                       !- Outside Boundary Condition Object
  NoSun,                                  !- Sun Exposure
  NoWind,                                 !- Wind Exposure
  ,                                       !- View Factor to Ground
  ,                                       !- Number of Vertices
  54.27, 7, 0,                            !- X,Y,Z Vertex 1 {m}
  54.27, 0, 0,                            !- X,Y,Z Vertex 2 {m}
  0, 0, 0,                                !- X,Y,Z Vertex 3 {m}
  0, 7, 0;                                !- X,Y,Z Vertex 4 {m}

OS:SubSurface,
  {fb852724-799d-471a-8d77-33680befcc49}, !- Handle
  Point_Of_Sale_Wall_South_Glazing,       !- Name
  FixedWindow,                            !- Sub Surface Type
  ,                                       !- Construction Name
  {9009937c-f482-4672-89a1-f7cf54846eba}, !- Surface Name
  ,                                       !- Outside Boundary Condition Object
  ,                                       !- View Factor to Ground
  ,                                       !- Shading Control Name
  ,                                       !- Frame and Divider Name
  1,                                      !- Multiplier
  ,                                       !- Number of Vertices
  0.05, 0, 2.66,                          !- X,Y,Z Vertex 1 {m}
  0.05, 0, 1.14,                          !- X,Y,Z Vertex 2 {m}
  25.085, 0, 1.14,                        !- X,Y,Z Vertex 3 {m}
  25.085, 0, 2.66;                        !- X,Y,Z Vertex 4 {m}

OS:Surface,
  {ba6763ab-0051-4f2e-8928-dab7da318626}, !- Handle
  Point_Of_Sale_Floor,                    !- Name
  Floor,                                  !- Surface Type
  ,                                       !- Construction Name
  {9b1a23e3-d6d3-4b8d-afc1-99b6008245d5}, !- Space Name
  Ground,                                 !- Outside Boundary Condition
  ,                                       !- Outside Boundary Condition Object
  NoSun,                                  !- Sun Exposure
  NoWind,                                 !- Wind Exposure
  ,                                       !- View Factor to Ground
  ,                                       !- Number of Vertices
  25.135, 6, 0,                           !- X,Y,Z Vertex 1 {m}
  25.135, 0, 0,                           !- X,Y,Z Vertex 2 {m}
  0, 0, 0,                                !- X,Y,Z Vertex 3 {m}
  0, 6, 0;                                !- X,Y,Z Vertex 4 {m}

OS:SubSurface,
  {3e9ece92-e74b-41bb-9c38-eaa39daf9da5}, !- Handle
  Skylights_r2c4,                         !- Name
  Skylight,                               !- Sub Surface Type
  ,                                       !- Construction Name
  {98d1696a-01ee-4d41-b036-9547b30bc7c6}, !- Surface Name
  ,                                       !- Outside Boundary Condition Object
  ,                                       !- View Factor to Ground
  ,                                       !- Shading Control Name
  ,                                       !- Frame and Divider Name
  ,                                       !- Multiplier
  ,                                       !- Number of Vertices
  23.7822, 10.4648, 6.096,                !- X,Y,Z Vertex 1 {m}
  23.7822, 11.684, 6.096,                 !- X,Y,Z Vertex 2 {m}
  22.563, 11.684, 6.096,                  !- X,Y,Z Vertex 3 {m}
  22.563, 10.4648, 6.096;                 !- X,Y,Z Vertex 4 {m}

OS:Surface,
  {51ff0444-3e37-4385-8b83-cdb986bee20b}, !- Handle
  Core_Retail_Wall_South_2,               !- Name
  Wall,                                   !- Surface Type
  ,                                       !- Construction Name
  {22b9afce-9b38-43c5-88a1-60e195f7bcaf}, !- Space Name
  Surface,                                !- Outside Boundary Condition
  {598f261c-ae52-4421-af8b-360caaf964bd}, !- Outside Boundary Condition Object
  NoSun,                                  !- Sun Exposure
  NoWind,                                 !- Wind Exposure