
OS:Version,
  {28b14c65-985f-4ea3-bd8d-6b7ea84a171d}, !- Handle
  1.5.0;                                  !- Version Identifier

OS:Site,
  {6085c6ca-90a2-44fa-9fe9-0c42081a81c7}, !- Handle
  San Francisco Intl Ap_CA_USA Design_Conditions, !- Name
  37.62,                                  !- Latitude {deg}
  -122.4,                                 !- Longitude {deg}
  -8,                                     !- Time Zone {hr}
  2,                                      !- Elevation {m}
  City;                                   !- Terrain

OS:SimulationControl,
  {ca5677bb-2797-4be9-affc-6c519a5c731b}, !- Handle
  Yes,                                    !- Do Zone Sizing Calculation
  Yes,                                    !- Do System Sizing Calculation
  Yes,                                    !- Do Plant Sizing Calculation
  Yes,                                    !- Run Simulation for Sizing Periods
  Yes,                                    !- Run Simulation for Weather File Run Periods
  0.04,                                   !- Loads Convergence Tolerance Value
  0.2,                                    !- Temperature Convergence Tolerance Value {deltaC}
  FullInteriorAndExterior,                !- Solar Distribution
  25,                                     !- Maximum Number of Warmup Days
  6;                                      !- Minimum Number of Warmup Days

OS:Schedule:Compact,
  {c8fe837c-e985-4aac-9169-6f6cb31b2820}, !- Handle
  SWHSys1 Water Heater Ambient Temperature Schedule Name, !- Name
  {2211e143-bb5d-4a2a-9aa2-2439facbe3d4}, !- Schedule Type Limits Name
  Through: 12/31,                         !- Field 1
  For: AllDays,                           !- Field 2
  Until: 24:00,                           !- Field 3
  22.0;                                   !- Field 4

OS:ScheduleTypeLimits,
  {2211e143-bb5d-4a2a-9aa2-2439facbe3d4}, !- Handle
  Temperature,                            !- Name
  -60,                                    !- Lower Limit Value {BasedOnField A4}
  200,                                    !- Upper Limit Value {BasedOnField A4}
  CONTINUOUS,                             !- Numeric Type
  Temperature;                            !- Unit Type

OS:Connection,
  {434a8aca-cde7-4386-bbb4-f016eb632e5d}, !- Handle
  {b3ec891c-e393-4bcc-9374-1a22fecd95b2}, !- Name
  ,                                       !- Source Object
  11,                                     !- Outlet Port
  ,                                       !- Target Object
  2;                                      !- Inlet Port

OS:Space,
  {4398fedf-26c5-4368-a095-f5d3e2cd16ea}, !- Handle
  Room_2_Flr_3,                           !- Name
  ,                                       !- Space Type Name
  ,                                       !- Default Construction Set Name
  ,                                       !- Default Schedule Set Name
  0,                                      !- Direction of Relative North {deg}
  0,                                      !- X Origin {m}
  0,                                      !- Y Origin {m}
  0,                                      !- Z Origin {m}
  ,                                       !- Building Story Name
  ,                                       !- Thermal Zone Name
  Yes;                                    !- Part of Total Floor Area

OS:Schedule:Compact,
  {4b306fb1-72a7-4436-ae16-05d9c70e7847}, !- Handle
  Adva_OccGuestRoom_HtgSP_Sch,            !- Name
  {2211e143-bb5d-4a2a-9aa2-2439facbe3d4}, !- Schedule Type Limits Name
  Through: 12/31,                         !- Field 1
  For: SummerDesignDay WinterDesignDay,   !- Field 2
  Until: 24:00,                           !- Field 3
  21.11,                                  !- Field 4
  For: AllOtherDays,                      !- Field 5
  Until: 9:00,                            !- Field 6
  21.11,                                  !- Field 7
  Until: 16:00,                           !- Field 8
  18.889,                                 !- Field 9
  Until: 24:00,                           !- Field 10
  21.11;                                  !- Field 11

OS:Schedule:Compact,
  {543ddef5-67c4-4578-8281-1b143510ee4a}, !- Handle
  Adva_OccGuestRoom_ClgSP_Sch,            !- Name
  {2211e143-bb5d-4a2a-9aa2-2439facbe3d4}, !- Schedule Type Limits Name
  Through: 12/31,                         !- Field 1
  For: SummerDesignDay WinterDesignDay,   !- Field 2
  Until: 24:00,                           !- Field 3
  21.11,                                  !- Field 4
  For: AllOtherDays,                      !- Field 5
  Until: 9:00,                            !- Field 6
  21.11,                                  !- Field 7
  Until: 16:00,                           !- Field 8
  23.333,                                 !- Field 9
  Until: 24:00,                           !- Field 10
  21.11;                                  !- Field 11

OS:Schedule:Compact,
  {208e488d-52be-4db2-98b2-1bf45d2abe09}, !- Handle
  GuestRoom_Eqp_Sch_Base,                 !- Name
  {2ea82076-9113-4dc6-9bf3-ca9723b885a3}, !- Schedule Type Limits Name
  Through: 12/31,                         !- Field 1
  For: Weekdays,                          !- Field 2
  Until: 06:00,                           !- Field 3
  0.20,                                   !- Field 4
  Until: 07:00,                           !- Field 5
  0.62,                                   !- Field 6
  Until: 08:00,                           !- Field 7
  0.90,                                   !- Field 8
  Until: 10:00,                           !- Field 9
  0.43,                                   !- Field 10
  Until: 17:00,                           !- Field 11
  0.26,                                   !- Field 12
  Until: 19:00,                           !- Field 13
  0.51,                                   !- Field 14
  Until: 20:00,                           !- Field 15
  0.49,                                   !- Field 16
  Until: 21:00,                           !- Field 17
  0.66,                                   !- Field 18
  Until: 22:00,                           !- Field 19
  0.70,                                   !- Field 20
  Until: 23:00,                           !- Field 21
  0.35,                                   !- Field 22
  Until: 24:00,                           !- Field 23
  0.20,                                   !- Field 24
  For: Saturday Sunday Holidays,          !- Field 25
  Until: 06:00,                           !- Field 26
  0.20,                                   !- Field 27
  Until: 07:00,                           !- Field 28
  0.3,                                    !- Field 29
  Until: 08:00,                           !- Field 30
  0.62,                                   !- Field 31
  Until: 09:00,                           !- Field 32
  0.90,                                   !- Field 33
  Until: 10:00,                           !- Field 34
  0.62,                                   !- Field 35
  Until: 17:00,                           !- Field 36
  0.29,                                   !- Field 37
  Until: 18:00,                           !- Field 38
  0.43,                                   !- Field 39
  Until: 19:00,                           !- Field 40
  0.51,                                   !- Field 41
  Until: 20:00,                           !- Field 42
  0.49,                                   !- Field 43
  Until: 21:00,                           !- Field 44
  0.66,                                   !- Field 45
  Until: 22:00,                           !- Field 46
  0.70,                                   !- Field 47
  Until: 23:00,                           !- Field 48
  0.35,                                   !- Field 49
  Until: 24:00,                           !- Field 50
  0.20,                                   !- Field 51
  For: WinterDesignDay,                   !- Field 52
  Until: 24:00,                           !- Field 53
  0.0,                                    !- Field 54
  For: SummerDesignDay CustomDay1 CustomDay2, !- Field 55
  Until: 24:00,                           !- Field 56
  1.0;                                    !- Field 57

OS:ScheduleTypeLimits,
  {2ea82076-9113-4dc6-9bf3-ca9723b885a3}, !- Handle
  Fraction,                               !- Name
  0,                                      !- Lower Limit Value {BasedOnField A4}
  1,                                      !- Upper Limit Value {BasedOnField A4}
  CONTINUOUS;                             !- Numeric Type

OS:Schedule:Compact,
  {18a08d0b-64b0-4f15-a057-cdd56ae2a8ec}, !- Handle
  CLOTHING_SCH,                           !- Name
  ,                                       !- Schedule Type Limits Name
  Through: 04/30,                         !- Field 1
  For: AllDays,                           !- Field 2
  Until: 24:00,                           !- Field 3
  1.0,                                    !- Field 4
  Through: 09/30,                         !- Field 5
  For: AllDays,                           !- Field 6
  Until: 24:00,                           !- Field 7
  0.5,                                    !- Field 8
  Through: 12/31,                         !- Field 9
  For: AllDays,                           !- Field 10
  Until: 24:00,                           !- Field 11
  1.0;                                    !- Field 12

OS:ScheduleTypeLimits,
  {2aaaea5f-d319-4adc-bcc4-471a6579e0e5}, !- Handle
  {28655906-9229-42cc-8a25-58c614ad977f}; !- Name

OS:Surface,
  {df64775b-b344-4c16-83b5-84b911713847}, !- Handle
  Corridor_Flr_3_Wall_1_North,            !- Name
  Wall,                                   !- Surface Type
  ,                                       !- Construction Name
  {227b807d-4e11-4183-8a63-1ff910e681e5}, !- Space Name
  Outdoors,                               !- Outside Boundary Condition
  ,                                       !- Outside Boundary Condition Object
  SunExposed,                             !- Sun Exposure
  WindExposed,                            !- Wind Exposure
  ,                                       !- View Factor to Ground
  ,                                       !- Number of Vertices
  10.363, 22.86, 10.056,                  !- X,Y,Z Vertex 1 {m}
  10.363, 22.86, 7.008,                   !- X,Y,Z Vertex 2 {m}
  4.572, 22.86, 7.008,                    !- X,Y,Z Vertex 3 {m}
  4.572, 22.86, 10.056;                   !- X,Y,Z Vertex 4 {m}

OS:Connection,
  {8f8b800e-da48-4cd9-9bad-bd542bf983d9}, !- Handle
  {e446e9df-791e-43a2-9baa-8110f2b31cf2}, !- Name
  ,                                       !- Source Object
  11,                                     !- Outlet Port
  ,                                       !- Target Object
  2;                                      !- Inlet Port

OS:Space,
  {227b807d-4e11-4183-8a63-1ff910e681e5}, !- Handle
  Corridor_Flr_3,                         !- Name
  ,                                       !- Space Type Name
  ,                                       !- Default Construction Set Name
  ,                                       !- Default Schedule Set Name
  0,                                      !- Direction of Relative North {deg}
  0,                                      !- X Origin {m}
  0,                                      !- Y Origin {m}
  0,                                      !- Z Origin {m}
  ,                                       !- Building Story Name
  ,                                       !- Thermal Zone Name
  Yes;                                    !- Part of Total Floor Area

OS:Schedule:Compact,
  {ec60c9ac-389a-4c28-8044-c1a9f88dea12}, !- Handle
  HTGSETP_SCH,                            !- Name
  {2211e143-bb5d-4a2a-9aa2-2439facbe3d4}, !- Schedule Type Limits Name
  Through: 12/31,                         !- Field 1
  For: AllDays,                           !- Field 2
  Until: 24:00,                           !- Field 3
  21.;                                    !- Field 4

OS:Schedule:Compact,
  {50819889-ea61-4505-8055-91744e78341b}, !- Handle
  CLGSETP_SCH,                            !- Name
  {2211e143-bb5d-4a2a-9aa2-2439facbe3d4}, !- Schedule Type Limits Name
  Through: 12/31,                         !- Field 1
  For: AllDays,                           !- Field 2
  Until: 24:00,                           !- Field 3
  24.;                                    !- Field 4

OS:Surface,
  {a366e56a-c157-4db1-82c0-8279785475d7}, !- Handle
  Corridor_Flr_3_Wall_3_West,             !- Name
  Wall,                                   !- Surface Type
  ,                                       !- Construction Name
  {227b807d-4e11-4183-8a63-1ff910e681e5}, !- Space Name
  Surface,                                !- Outside Boundary Condition
  {1f984cd2-4097-40a3-992c-d3dd2bf8f223}, !- Outside Boundary Condition Object
  NoSun,                                  !- Sun Exposure
  NoWind,                                 !- Wind Exposure
  ,                                       !- View Factor to Ground
  ,                                       !- Number of Vertices
  4.572, 14.326, 10.056,                  !- X,Y,Z Vertex 1 {m}
  4.572, 14.326, 7.008,                   !- X,Y,Z Vertex 2 {m}
  4.572, 5.791, 7.008,                    !- X,Y,Z Vertex 3 {m}
  4.572, 5.791, 10.056;                   !- X,Y,Z Vertex 4 {m}

OS:Connection,
  {1d47f44e-ab81-48de-ad65-0094aa40d74e}, !- Handle
  {0342828a-a87f-4c5e-9c36-7e1693bf6a53}, !- Name
  ,                                       !- Source Object
  11,                                     !- Outlet Port
  ,                                       !- Target Object
  2;                                      !- Inlet Port

OS:Space,
  {87113b54-1a70-42f4-8d62-370ab9058660}, !- Handle
  Dining_Flr_6,                           !- Name
  ,                                       !- Space Type Name
  ,                                       !- Default Construction Set Name
  ,                                       !- Default Schedule Set Name
  0,                                      !- Direction of Relative North {deg}
  0,                                      !- X Origin {m}
  0,                                      !- Y Origin {m}
  0,                                      !- Z Origin {m}
  ,                                       !- Building Story Name
  ,                                       !- Thermal Zone Name
  Yes;                                    !- Part of Total Floor Area

OS:Schedule:Compact,
  {dd03f839-08d2-4dc5-b44d-36600b38d77c}, !- Handle
  INFIL_QUARTER_ON_SCH,                   !- Name
  {2ea82076-9113-4dc6-9bf3-ca9723b885a3}, !- Schedule Type Limits Name
  Through: 12/31,                         !- Field 1
  For: AllDays,                           !- Field 2
  Until: 24:00,                           !- Field 3
  0.25;                                   !- Field 4

OS:Connection,
  {8f59e86a-deae-4a18-a195-a27af1cf6a87}, !- Handle
  {04d96336-5b7d-4805-90f3-40e70bd901e9}, !- Name
  ,                                       !- Source Object
  11,                                     !- Outlet Port
  ,                                       !- Target Object
  2;                                      !- Inlet Port

OS:Space,
  {c11369de-980c-4379-8814-84c108bfb730}, !- Handle
  Kitchen_Flr_6,                          !- Name
  ,                                       !- Space Type Name
  ,                                       !- Default Construction Set Name
  ,                                       !- Default Schedule Set Name
  0,                                      !- Direction of Relative North {deg}
  0,                                      !- X Origin {m}
  0,                                      !- Y Origin {m}
  0,                                      !- Z Origin {m}
  ,                                       !- Building Story Name
  ,                                       !- Thermal Zone Name
  Yes;                                    !- Part of Total Floor Area

OS:Schedule:Compact,
  {9f4fd942-88bf-414b-925c-b0c06eb43461}, !- Handle
  ALWAYS_ON,                              !- Name
  {2ea82076-9113-4dc6-9bf3-ca9723b885a3}, !- Schedule Type Limits Name
  Through: 12/31,                         !- Field 1
  For: AllDays,                           !- Field 2
  Until: 24:00,                           !- Field 3
  1.0;                                    !- Field 4

OS:Schedule:Compact,
  {4b3d5434-2b00-4d6f-8d88-f15706eeafa8}, !- Handle
  BLDG_OCC_SCH,                           !- Name
  {2ea82076-9113-4dc6-9bf3-ca9723b885a3}, !- Schedule Type Limits Name
  Through: 12/31,                         !- Field 1
  For: Weekdays,                          !- Field 2
  Until: 06:00,                           !- Field 3
  0.9,                                    !- Field 4
  Until: 07:00,                           !- Field 5
  0.7,                                    !- Field 6
  Until: 09:00,                           !- Field 7
  0.4,                                    !- Field 8
  Until: 15:00,                           !- Field 9
  0.2,                                    !- Field 10
  Until: 16:00,                           !- Field 11
  0.3,                                    !- Field 12
  Until: 19:00,                           !- Field 13
  0.5,                                    !- Field 14
  Until: 21:00,                           !- Field 15
  0.7,                                    !- Field 16
  Until: 22:00,                           !- Field 17
  0.8,                                    !- Field 18
  Until: 24:00,                           !- Field 19
  0.9,                                    !- Field 20
  For: SummerDesignDay,                   !- Field 21
  Until: 24:00,                           !- Field 22
  1.0,                                    !- Field 23
  For: Saturday,                          !- Field 24
  Until: 06:00,                           !- Field 25
  0.9,                                    !- Field 26
  Until: 07:00,                           !- Field 27
  0.7,                                    !- Field 28
  Until: 09:00,                           !- Field 29
  0.5,                                    !- Field 30
  Until: 17:00,                           !- Field 31
  0.3,                                    !- Field 32
  Until: 18:00,                           !- Field 33
  0.5,                                    !- Field 34
  Until: 21:00,                           !- Field 35
  0.6,                                    !- Field 36
  Until: 24:00,                           !- Field 37
  0.7,                                    !- Field 38
  For: WinterDesignDay,                   !- Field 39
  Until: 24:00,                           !- Field 40
  0.0,                                    !- Field 41
  For: Sunday Holidays AllOtherDays,      !- Field 42
  Until: 08:00,                           !- Field 43
  0.7,                                    !- Field 44
  Until: 11:00,                           !- Field 45
  0.5,                                    !- Field 46
  Until: 13:00,                           !- Field 47
  0.3,                                    !- Field 48
  Until: 16:00,                           !- Field 49
  0.2,                                    !- Field 50
  Until: 17:00,                           !- Field 51
  0.3,                                    !- Field 52
  Until: 19:00,                           !- Field 53
  0.4,                                    !- Field 54
  Until: 21:00,                           !- Field 55
  0.6,                                    !- Field 56
  Until: 24:00,                           !- Field 57
  0.8;                                    !- Field 58

OS:Schedule:Compact,
  {60208dfb-3820-4a44-9edb-ebe47be21540}, !- Handle
  ACTIVITY_SCH,                           !- Name
  {1fc6a392-8efb-4e14-805b-b2c371edbbd2}, !- Schedule Type Limits Name
  Through: 12/31,                         !- Field 1
  For: AllDays,                           !- Field 2
  Until: 24:00,                           !- Field 3
  120.;                                   !- Field 4

OS:ScheduleTypeLimits,
  {7b09f524-4ec6-4a56-8f7e-83282657039e}, !- Handle
  {354e4a32-c13c-4f64-8c2e-2ccfc14eb83b}; !- Name

OS:ScheduleTypeLimits,
  {1fc6a392-8efb-4e14-805b-b2c371edbbd2}, !- Handle
  ActivityLevel,                          !- Name
  0,                                      !- Lower Limit Value {BasedOnField A4}
  ,                                       !- Upper Limit Value {BasedOnField A4}
  Continuous,                             !- Numeric Type
  ActivityLevel;                          !- Unit Type

OS:Schedule:Compact,
  {372c9d9e-a8c9-45d1-95a9-d854298c5d7e}, !- Handle
  WORK_EFF_SCH,                           !- Name
  {2ea82076-9113-4dc6-9bf3-ca9723b885a3}, !- Schedule Type Limits Name
  Through: 12/31,                         !- Field 1
  For: AllDays,                           !- Field 2
  Until: 24:00,                           !- Field 3
  0.0;                                    !- Field 4

OS:Schedule:Compact,
  {28e6c720-e3cd-4059-b8c7-f9b32ed384cf}, !- Handle
  Room_2_Flr_6 Water Equipment Hot Supply Temp Sched, !- Name
  {2211e143-bb5d-4a2a-9aa2-2439facbe3d4}, !- Schedule Type Limits Name
  Through: 12/31,                         !- Field 1
  For: AllDays,                           !- Field 2
  Until: 24:00,                           !- Field 3
  55;                                     !- Field 4

OS:Surface,
  {a7c245f6-3ee5-4f7a-9ac8-0d24e35f1ec8}, !- Handle
  Retail_1_Flr_1_Wall_North,              !- Name
  Wall,                                   !- Surface Type
  ,                                       !- Construction Name
  {21e987d1-e53a-42a9-97e2-511fed8e57c3}, !- Space Name
  Surface,                                !- Outside Boundary Condition
  {e4432d6e-b86d-499a-bafc-390d217e9758}, !- Outside Boundary Condition Object
  NoSun,                                  !- Sun Exposure
  NoWind,                                 !- Wind Exposure
  ,                                       !- View Factor to Ground
  ,                                       !- Number of Vertices
  11.582, 5.791, 3.9624,                  !- X,Y,Z Vertex 1 {m}
  11.582, 5.791, 0,                       !- X,Y,Z Vertex 2 {m}
  0, 5.791, 0,                            !- X,Y,Z Vertex 3 {m}
  0, 5.791, 3.9624;                       !- X,Y,Z Vertex 4 {m}

OS:Connection,
  {efed0e40-57eb-4c3a-ac96-4eb8af5ef9e5}, !- Handle
  {35acef61-ecf1-4579-bced-5b8a5712e7e1}, !- Name
  ,                                       !- Source Object
  11,                                     !- Outlet Port
  ,                                       !- Target Object
  2;                                      !- Inlet Port

OS:Space,
  {21e987d1-e53a-42a9-97e2-511fed8e57c3}, !- Handle
  Retail_1_Flr_1,                         !- Name
  ,                                       !- Space Type Name
  ,                                       !- Default Construction Set Name
  ,                                       !- Default Schedule Set Name
  0,                                      !- Direction of Relative North {deg}
  0,                                      !- X Origin {m}
  0,                                      !- Y Origin {m}
  0,                                      !- Z Origin {m}
  ,                                       !- Building Story Name
  ,                                       !- Thermal Zone Name
  Yes;                                    !- Part of Total Floor Area

OS:Schedule:Compact,
  {b3c65639-5d03-41b2-a468-b4255e4c0118}, !- Handle
  BLDG_LIGHT_SCH,                         !- Name
  {2ea82076-9113-4dc6-9bf3-ca9723b885a3}, !- Schedule Type Limits Name
  Through: 12/31,                         !- Field 1
  For: Weekdays,                          !- Field 2
  Until: 1:00,                            !- Field 3
  0.2,                                    !- Field 4
  Until: 2:00,                            !- Field 5
  0.15,                                   !- Field 6
  Until: 5:00,                            !- Field 7
  0.1,                                    !- Field 8
  Until: 6:00,                            !- Field 9
  0.2,                                    !- Field 10
  Until: 7:00,                            !- Field 11
  0.4,                                    !- Field 12
  Until: 8:00,                            !- Field 13
  0.5,                                    !- Field 14
  Until: 10:00,                           !- Field 15
  0.4,                                    !- Field 16
  Until: 18:00,                           !- Field 17
  0.25,                                   !- Field 18
  Until: 19:00,                           !- Field 19
  0.6,                                    !- Field 20
  Until: 20:00,                           !- Field 21
  0.8,                                    !- Field 22
  Until: 21:00,                           !- Field 23
  0.9,                                    !- Field 24
  Until: 22:00,                           !- Field 25
  0.8,                                    !- Field 26
  Until: 23:00,                           !- Field 27
  0.6,                                    !- Field 28
  Until: 24:00,                           !- Field 29
  0.3,                                    !- Field 30
  For: Saturday,                          !- Field 31
  Until: 2:00,                            !- Field 32
  0.2,                                    !- Field 33
  Until: 6:00,                            !- Field 34
  0.1,                                    !- Field 35
  Until: 8:00,                            !- Field 36
  0.3,                                    !- Field 37
  Until: 10:00,                           !- Field 38
  0.4,                                    !- Field 39
  Until: 11:00,                           !- Field 40
  0.3,                                    !- Field 41
  Until: 18:00,                           !- Field 42
  0.25,                                   !- Field 43
  Until: 19:00,                           !- Field 44
  0.6,                                    !- Field 45
  Until: 22:00,                           !- Field 46
  0.7,                                    !- Field 47
  Until: 23:00,                           !- Field 48
  0.6,                                    !- Field 49
  Until: 24:00,                           !- Field 50
  0.3,                                    !- Field 51
  For: SummerDesignDay,                   !- Field 52
  Until: 24:00,                           !- Field 53
  1,                                      !- Field 54
  For: WinterDesignDay,                   !- Field 55
  Until: 24:00,                           !- Field 56
  0,                                      !- Field 57
  For: Sunday Holidays AllOtherDays,      !- Field 58
  Until: 2:00,                            !- Field 59
  0.3,                                    !- Field 60
  Until: 6:00,                            !- Field 61
  0.2,                                    !- Field 62
  Until: 7:00,                            !- Field 63
  0.3,                                    !- Field 64
  Until: 9:00,                            !- Field 65
  0.4,                                    !- Field 66
  Until: 13:00,                           !- Field 67
  0.3,                                    !- Field 68
  Until: 18:00,                           !- Field 69
  0.2,                                    !- Field 70
  Until: 19:00,                           !- Field 71
  0.5,                                    !- Field 72
  Until: 20:00,                           !- Field 73
  0.7,                                    !- Field 74
  Until: 21:00,                           !- Field 75
  0.8,                                    !- Field 76
  Until: 22:00,                           !- Field 77
  0.6,                                    !- Field 78
  Until: 23:00,                           !- Field 79
  0.5,                                    !- Field 80
  Until: 24:00,                           !- Field 81
  0.3;                                    !- Field 82

OS:Schedule:Compact,
  {4dc56253-7680-4e0c-9669-b36c41d7c46c}, !- Handle
  Base_OccGuestRoom_HtgSP_Sch,            !- Name
  {2211e143-bb5d-4a2a-9aa2-2439facbe3d4}, !- Schedule Type Limits Name
  Through: 12/31,                         !- Field 1
  For: AllDays,                           !- Field 2
  Until: 24:00,                           !- Field 3
  21.11;                                  !- Field 4

OS:Schedule:Compact,
  {f15f23e3-6b2c-47d3-b49b-4380ad8ef317}, !- Handle
  Base_OccGuestRoom_ClgSP_Sch,            !- Name
  {2211e143-bb5d-4a2a-9aa2-2439facbe3d4}, !- Schedule Type Limits Name
  Through: 12/31,                         !- Field 1
  For: AllDays,                           !- Field 2
  Until: 24:00,                           !- Field 3
  21.11;                                  !- Field 4

OS:SubSurface,
  {f3bb6a30-6e2c-41d7-af03-0f58eec3f3b6}, !- Handle
  Room_3_Mult19_Flr_3_Wall_South_Window,  !- Name
  FixedWindow,                            !- Sub Surface Type
  ,                                       !- Construction Name
  {e556d439-42e7-45a7-b6d3-13d6603bded9}, !- Surface Name
  ,                                       !- Outside Boundary Condition Object
  ,                                       !- View Factor to Ground
  ,                                       !- Shading Control Name
  ,                                       !- Frame and Divider Name
  1,                                      !- Multiplier
  ,                                       !- Number of Vertices
  7.026, 5.791, 9.3318,                   !- X,Y,Z Vertex 1 {m}
  7.026, 5.791, 8.1128,                   !- X,Y,Z Vertex 2 {m}
  10.043, 5.791, 8.1128,                  !- X,Y,Z Vertex 3 {m}
  10.043, 5.791, 9.3318;                  !- X,Y,Z Vertex 4 {m}

OS:Surface,
  {e556d439-42e7-45a7-b6d3-13d6603bded9}, !- Handle
  Room_3_Mult19_Flr_3_Wall_South,         !- Name