
OS:Version,
  {c45cc8de-1908-42d0-8d49-b254f55599a9}, !- Handle
  1.5.0;                                  !- Version Identifier

OS:Site,
  {c71a0000-9f9c-40d8-862d-8e21afcdfde3}, !- Handle
  San Francisco Intl Ap_CA_USA Design_Conditions, !- Name
  37.62,                                  !- Latitude {deg}
  -122.4,                                 !- Longitude {deg}
  -8,                                     !- Time Zone {hr}
  2,                                      !- Elevation {m}
  City;                                   !- Terrain

OS:SimulationControl,
  {0cdd1185-58d9-4ad2-b4f0-df922614e0e6}, !- Handle
  Yes,                                    !- Do Zone Sizing Calculation
  Yes,                                    !- Do System Sizing Calculation
  Yes,                                    !- Do Plant Sizing Calculation
  Yes,                                    !- Run Simulation for Sizing Periods
  Yes,                                    !- Run Simulation for Weather File Run Periods
  0.04,                                   !- Loads Convergence Tolerance Value
  0.2,                                    !- Temperature Convergence Tolerance Value {deltaC}
  FullInteriorAndExterior,                !- Solar Distribution
  25,                                     !- Maximum Number of Warmup Days
  6;                                      !- Minimum Number of Warmup Days

OS:Connection,
  {eed4a8d2-674b-47f0-898d-ce05477836b3}, !- Handle
  {2dda11d1-6c88-43d5-87cb-fca6a99f0cfd}, !- Name
  ,                                       !- Source Object
  11,                                     !- Outlet Port
  ,                                       !- Target Object
  2;                                      !- Inlet Port

OS:Space,
  {02d05153-d74f-4279-a0ff-2577c5300453}, !- Handle
  Room_1_Flr_3,                           !- Name
  ,                                       !- Space Type Name
  ,                                       !- Default Construction Set Name
  ,                                       !- Default Schedule Set Name
  0,                                      !- Direction of Relative North {deg}
  0,                                      !- X Origin {m}
  0,                                      !- Y Origin {m}
  0,                                      !- Z Origin {m}
  ,                                       !- Building Story Name
  ,                                       !- Thermal Zone Name
  Yes;                                    !- Part of Total Floor Area

OS:Schedule:Compact,
  {310b0655-97f0-4109-a4f3-52f613726606}, !- Handle
  Adva_OccGuestRoom_HtgSP_Sch,            !- Name
  {1ac55dd3-cf7d-47fc-a95b-d51c728f0078}, !- Schedule Type Limits Name
  Through: 12/31,                         !- Field 1
  For: SummerDesignDay WinterDesignDay,   !- Field 2
  Until: 24:00,                           !- Field 3
  21.11,                                  !- Field 4
  For: AllOtherDays,                      !- Field 5
  Until: 9:00,                            !- Field 6
  21.11,                                  !- Field 7
  Until: 16:00,                           !- Field 8
  18.889,                                 !- Field 9
  Until: 24:00,                           !- Field 10
  21.11;                                  !- Field 11

OS:ScheduleTypeLimits,
  {1ac55dd3-cf7d-47fc-a95b-d51c728f0078}, !- Handle
  Temperature,                            !- Name
  -60,                                    !- Lower Limit Value {BasedOnField A4}
  200,                                    !- Upper Limit Value {BasedOnField A4}
  CONTINUOUS,                             !- Numeric Type
  Temperature;                            !- Unit Type

OS:Schedule:Compact,
  {fc542e12-7a80-47a7-b20a-7c276f0b0f21}, !- Handle
  Adva_OccGuestRoom_ClgSP_Sch,            !- Name
  {1ac55dd3-cf7d-47fc-a95b-d51c728f0078}, !- Schedule Type Limits Name
  Through: 12/31,                         !- Field 1
  For: SummerDesignDay WinterDesignDay,   !- Field 2
  Until: 24:00,                           !- Field 3
  21.11,                                  !- Field 4
  For: AllOtherDays,                      !- Field 5
  Until: 9:00,                            !- Field 6
  21.11,                                  !- Field 7
  Until: 16:00,                           !- Field 8
  23.333,                                 !- Field 9
  Until: 24:00,                           !- Field 10
  21.11;                                  !- Field 11

OS:Schedule:Compact,
  {84b1aa9b-18c7-455b-823f-6aa1290f0fa9}, !- Handle
  GuestRoom_Eqp_Sch_Base,                 !- Name
  {f0a1392c-91e3-40cd-8b52-c725e9d431c0}, !- Schedule Type Limits Name
  Through: 12/31,                         !- Field 1
  For: Weekdays,                          !- Field 2
  Until: 06:00,                           !- Field 3
  0.20,                                   !- Field 4
  Until: 07:00,                           !- Field 5
  0.62,                                   !- Field 6
  Until: 08:00,                           !- Field 7
  0.90,                                   !- Field 8
  Until: 10:00,                           !- Field 9
  0.43,                                   !- Field 10
  Until: 17:00,                           !- Field 11
  0.26,                                   !- Field 12
  Until: 19:00,                           !- Field 13
  0.51,                                   !- Field 14
  Until: 20:00,                           !- Field 15
  0.49,                                   !- Field 16
  Until: 21:00,                           !- Field 17
  0.66,                                   !- Field 18
  Until: 22:00,                           !- Field 19
  0.70,                                   !- Field 20
  Until: 23:00,                           !- Field 21
  0.35,                                   !- Field 22
  Until: 24:00,                           !- Field 23
  0.20,                                   !- Field 24
  For: Saturday Sunday Holidays,          !- Field 25
  Until: 06:00,                           !- Field 26
  0.20,                                   !- Field 27
  Until: 07:00,                           !- Field 28
  0.3,                                    !- Field 29
  Until: 08:00,                           !- Field 30
  0.62,                                   !- Field 31
  Until: 09:00,                           !- Field 32
  0.90,                                   !- Field 33
  Until: 10:00,                           !- Field 34
  0.62,                                   !- Field 35
  Until: 17:00,                           !- Field 36
  0.29,                                   !- Field 37
  Until: 18:00,                           !- Field 38
  0.43,                                   !- Field 39
  Until: 19:00,                           !- Field 40
  0.51,                                   !- Field 41
  Until: 20:00,                           !- Field 42
  0.49,                                   !- Field 43
  Until: 21:00,                           !- Field 44
  0.66,                                   !- Field 45
  Until: 22:00,                           !- Field 46
  0.70,                                   !- Field 47
  Until: 23:00,                           !- Field 48
  0.35,                                   !- Field 49
  Until: 24:00,                           !- Field 50
  0.20,                                   !- Field 51
  For: WinterDesignDay,                   !- Field 52
  Until: 24:00,                           !- Field 53
  0.0,                                    !- Field 54
  For: SummerDesignDay CustomDay1 CustomDay2, !- Field 55
  Until: 24:00,                           !- Field 56
  1.0;                                    !- Field 57

OS:ScheduleTypeLimits,
  {f0a1392c-91e3-40cd-8b52-c725e9d431c0}, !- Handle
  Fraction,                               !- Name
  0,                                      !- Lower Limit Value {BasedOnField A4}
  1,                                      !- Upper Limit Value {BasedOnField A4}
  CONTINUOUS;                             !- Numeric Type

OS:Schedule:Compact,
  {0322903c-491b-467a-b7c4-786c249edda3}, !- Handle
  Room_2_Flr_3 Water Equipment Hot Supply Temp Sched, !- Name
  {1ac55dd3-cf7d-47fc-a95b-d51c728f0078}, !- Schedule Type Limits Name
  Through: 12/31,                         !- Field 1
  For: AllDays,                           !- Field 2
  Until: 24:00,                           !- Field 3
  55;                                     !- Field 4

OS:Schedule:Compact,
  {6b9c650c-066c-483d-aee0-bfa56471d44d}, !- Handle
  Room_2_Flr_6 Water Equipment Sensible fract sched, !- Name
  {f0a1392c-91e3-40cd-8b52-c725e9d431c0}, !- Schedule Type Limits Name
  Through: 12/31,                         !- Field 1
  For: AllDays,                           !- Field 2
  Until: 24:00,                           !- Field 3
  0.2;                                    !- Field 4

OS:Connection,
  {75a5158f-3c1b-43aa-aee4-29d05f39a623}, !- Handle
  {e026e5ba-ff7f-4aec-90be-e0721a1cbe05}, !- Name
  ,                                       !- Source Object
  11,                                     !- Outlet Port
  ,                                       !- Target Object
  2;                                      !- Inlet Port

OS:Space,
  {2563be90-f3f7-4c80-ac8a-acbc23c86238}, !- Handle
  Mech_Flr_1,                             !- Name
  ,                                       !- Space Type Name
  ,                                       !- Default Construction Set Name
  ,                                       !- Default Schedule Set Name
  0,                                      !- Direction of Relative North {deg}
  0,                                      !- X Origin {m}
  0,                                      !- Y Origin {m}
  0,                                      !- Z Origin {m}
  ,                                       !- Building Story Name
  ,                                       !- Thermal Zone Name
  Yes;                                    !- Part of Total Floor Area

OS:Schedule:Compact,
  {e56096d2-bc0a-47cc-b9a7-bd51c8817b73}, !- Handle
  HTGSETP_SCH,                            !- Name
  {1ac55dd3-cf7d-47fc-a95b-d51c728f0078}, !- Schedule Type Limits Name
  Through: 12/31,                         !- Field 1
  For: AllDays,                           !- Field 2
  Until: 24:00,                           !- Field 3
  21.;                                    !- Field 4

OS:Schedule:Compact,
  {0480cb37-cab8-4518-9d65-0a6bd92bb068}, !- Handle
  CLGSETP_SCH,                            !- Name
  {1ac55dd3-cf7d-47fc-a95b-d51c728f0078}, !- Schedule Type Limits Name
  Through: 12/31,                         !- Field 1
  For: AllDays,                           !- Field 2
  Until: 24:00,                           !- Field 3
  24.;                                    !- Field 4

OS:Schedule:Compact,
  {25217609-7ba0-4d30-8958-f13125f29357}, !- Handle
  BLDG_LIGHT_SCH,                         !- Name
  {f0a1392c-91e3-40cd-8b52-c725e9d431c0}, !- Schedule Type Limits Name
  Through: 12/31,                         !- Field 1
  For: Weekdays,                          !- Field 2
  Until: 1:00,                            !- Field 3
  0.2,                                    !- Field 4
  Until: 2:00,                            !- Field 5
  0.15,                                   !- Field 6
  Until: 5:00,                            !- Field 7
  0.1,                                    !- Field 8
  Until: 6:00,                            !- Field 9
  0.2,                                    !- Field 10
  Until: 7:00,                            !- Field 11
  0.4,                                    !- Field 12
  Until: 8:00,                            !- Field 13
  0.5,                                    !- Field 14
  Until: 10:00,                           !- Field 15
  0.4,                                    !- Field 16
  Until: 18:00,                           !- Field 17
  0.25,                                   !- Field 18
  Until: 19:00,                           !- Field 19
  0.6,                                    !- Field 20
  Until: 20:00,                           !- Field 21
  0.8,                                    !- Field 22
  Until: 21:00,                           !- Field 23
  0.9,                                    !- Field 24
  Until: 22:00,                           !- Field 25
  0.8,                                    !- Field 26
  Until: 23:00,                           !- Field 27
  0.6,                                    !- Field 28
  Until: 24:00,                           !- Field 29
  0.3,                                    !- Field 30
  For: Saturday,                          !- Field 31
  Until: 2:00,                            !- Field 32
  0.2,                                    !- Field 33
  Until: 6:00,                            !- Field 34
  0.1,                                    !- Field 35
  Until: 8:00,                            !- Field 36
  0.3,                                    !- Field 37
  Until: 10:00,                           !- Field 38
  0.4,                                    !- Field 39
  Until: 11:00,                           !- Field 40
  0.3,                                    !- Field 41
  Until: 18:00,                           !- Field 42
  0.25,                                   !- Field 43
  Until: 19:00,                           !- Field 44
  0.6,                                    !- Field 45
  Until: 22:00,                           !- Field 46
  0.7,                                    !- Field 47
  Until: 23:00,                           !- Field 48
  0.6,                                    !- Field 49
  Until: 24:00,                           !- Field 50
  0.3,                                    !- Field 51
  For: SummerDesignDay,                   !- Field 52
  Until: 24:00,                           !- Field 53
  1,                                      !- Field 54
  For: WinterDesignDay,                   !- Field 55
  Until: 24:00,                           !- Field 56
  0,                                      !- Field 57
  For: Sunday Holidays AllOtherDays,      !- Field 58
  Until: 2:00,                            !- Field 59
  0.3,                                    !- Field 60
  Until: 6:00,                            !- Field 61
  0.2,                                    !- Field 62
  Until: 7:00,                            !- Field 63
  0.3,                                    !- Field 64
  Until: 9:00,                            !- Field 65
  0.4,                                    !- Field 66
  Until: 13:00,                           !- Field 67
  0.3,                                    !- Field 68
  Until: 18:00,                           !- Field 69
  0.2,                                    !- Field 70
  Until: 19:00,                           !- Field 71
  0.5,                                    !- Field 72
  Until: 20:00,                           !- Field 73
  0.7,                                    !- Field 74
  Until: 21:00,                           !- Field 75
  0.8,                                    !- Field 76
  Until: 22:00,                           !- Field 77
  0.6,                                    !- Field 78
  Until: 23:00,                           !- Field 79
  0.5,                                    !- Field 80
  Until: 24:00,                           !- Field 81
  0.3;                                    !- Field 82

OS:Surface,
  {2ecc86b3-8561-47a1-b73c-927f122dcffa}, !- Handle
  Corridor_Flr_3_Wall_1_North,            !- Name
  Wall,                                   !- Surface Type
  ,                                       !- Construction Name
  {f365e26d-0494-4dfd-9203-71099e3e8c68}, !- Space Name
  Outdoors,                               !- Outside Boundary Condition
  ,                                       !- Outside Boundary Condition Object
  SunExposed,                             !- Sun Exposure
  WindExposed,                            !- Wind Exposure
  ,                                       !- View Factor to Ground
  ,                                       !- Number of Vertices
  10.363, 22.86, 10.056,                  !- X,Y,Z Vertex 1 {m}
  10.363, 22.86, 7.008,                   !- X,Y,Z Vertex 2 {m}
  4.572, 22.86, 7.008,                    !- X,Y,Z Vertex 3 {m}
  4.572, 22.86, 10.056;                   !- X,Y,Z Vertex 4 {m}

OS:Connection,
  {63e4ebdd-c292-49cb-948b-5a323bd7ef8f}, !- Handle
  {c20ff26c-424d-479d-a1b3-bc10e0333404}, !- Name
  ,                                       !- Source Object
  11,                                     !- Outlet Port
  ,                                       !- Target Object
  2;                                      !- Inlet Port

OS:Space,
  {f365e26d-0494-4dfd-9203-71099e3e8c68}, !- Handle
  Corridor_Flr_3,                         !- Name
  ,                                       !- Space Type Name
  ,                                       !- Default Construction Set Name
  ,                                       !- Default Schedule Set Name
  0,                                      !- Direction of Relative North {deg}
  0,                                      !- X Origin {m}
  0,                                      !- Y Origin {m}
  0,                                      !- Z Origin {m}
  ,                                       !- Building Story Name
  ,                                       !- Thermal Zone Name
  Yes;                                    !- Part of Total Floor Area

OS:Surface,
  {ac0a7040-86f3-45c4-949e-0911605a5fc3}, !- Handle
  Kitchen_Flr_6_Wall_East,                !- Name
  Wall,                                   !- Surface Type
  ,                                       !- Construction Name
  {5e0f53dd-e503-42b7-828c-26bb581fa71a}, !- Space Name
  Outdoors,                               !- Outside Boundary Condition
  ,                                       !- Outside Boundary Condition Object
  SunExposed,                             !- Sun Exposure
  WindExposed,                            !- Wind Exposure
  ,                                       !- View Factor to Ground
  ,                                       !- Number of Vertices
  86.563, 5.791, 19.2,                    !- X,Y,Z Vertex 1 {m}
  86.563, 5.791, 16.152,                  !- X,Y,Z Vertex 2 {m}
  86.563, 22.86, 16.152,                  !- X,Y,Z Vertex 3 {m}
  86.563, 22.86, 19.2;                    !- X,Y,Z Vertex 4 {m}

OS:Connection,
  {c3011fa3-8999-4ccc-b039-a242e6d4d2ce}, !- Handle
  {db94a4a3-342c-4f4f-9984-813252499c17}, !- Name
  ,                                       !- Source Object
  11,                                     !- Outlet Port
  ,                                       !- Target Object
  2;                                      !- Inlet Port

OS:Space,
  {5e0f53dd-e503-42b7-828c-26bb581fa71a}, !- Handle
  Kitchen_Flr_6,                          !- Name
  ,                                       !- Space Type Name
  ,                                       !- Default Construction Set Name
  ,                                       !- Default Schedule Set Name
  0,                                      !- Direction of Relative North {deg}
  0,                                      !- X Origin {m}
  0,                                      !- Y Origin {m}
  0,                                      !- Z Origin {m}
  ,                                       !- Building Story Name
  ,                                       !- Thermal Zone Name
  Yes;                                    !- Part of Total Floor Area

OS:Schedule:Compact,
  {f2828a9d-455e-4e18-97e8-aec9fc67dd10}, !- Handle
  Booster Water Inlet Temp Schedule,      !- Name
  ,                                       !- Schedule Type Limits Name
  THROUGH: 12/31,                         !- Field 1
  FOR: AllDays,                           !- Field 2
  UNTIL: 24:00,                           !- Field 3
  60.00;                                  !- Field 4

OS:ScheduleTypeLimits,
  {a6c55c9e-a26e-4968-824b-70d8cbc89e90}, !- Handle
  {27ba1fc7-dea1-48fe-a2d8-304ac3759cc8}; !- Name

OS:Schedule:Compact,
  {94a22d9c-c7de-47e1-a3e0-b39367ec502e}, !- Handle
  Room_2_Flr_6 Water Equipment Temp Sched, !- Name
  {1ac55dd3-cf7d-47fc-a95b-d51c728f0078}, !- Schedule Type Limits Name
  Through: 12/31,                         !- Field 1
  For: AllDays,                           !- Field 2
  Until: 24:00,                           !- Field 3
  60.00;                                  !- Field 4

OS:Schedule:Compact,
  {35dd4dbb-468e-454d-8dc3-7eedab36d8cc}, !- Handle
  Room_2_Flr_6 Water Equipment Hot Supply Temp Sched, !- Name
  {1ac55dd3-cf7d-47fc-a95b-d51c728f0078}, !- Schedule Type Limits Name
  Through: 12/31,                         !- Field 1
  For: AllDays,                           !- Field 2
  Until: 24:00,                           !- Field 3
  55;                                     !- Field 4

OS:Schedule:Compact,
  {d6fb26c4-df87-4db3-b663-6671f7e3c07b}, !- Handle
  Room_3_Mult9_Flr_6 Water Equipment Latent fract sched, !- Name
  {f0a1392c-91e3-40cd-8b52-c725e9d431c0}, !- Schedule Type Limits Name
  Through: 12/31,                         !- Field 1
  For: AllDays,                           !- Field 2
  Until: 24:00,                           !- Field 3
  0.05;                                   !- Field 4

OS:Schedule:Compact,
  {b7a9d560-2a7b-4543-a256-f3e031c6ec74}, !- Handle
  Room_4_Mult19_Flr_3 Water Equipment Sensible fract sched, !- Name
  {f0a1392c-91e3-40cd-8b52-c725e9d431c0}, !- Schedule Type Limits Name
  Through: 12/31,                         !- Field 1
  For: AllDays,                           !- Field 2
  Until: 24:00,                           !- Field 3
  0.2;                                    !- Field 4

OS:Surface,
  {b5cc642d-227c-4ed0-bc19-2f35cfd6b581}, !- Handle
  Lobby_Flr_1_Wall_2_North,               !- Name
  Wall,                                   !- Surface Type
  ,                                       !- Construction Name
  {9946f358-1400-476e-83b9-365c9a6742b9}, !- Space Name
  Outdoors,                               !- Outside Boundary Condition
  ,                                       !- Outside Boundary Condition Object
  SunExposed,                             !- Sun Exposure
  WindExposed,                            !- Wind Exposure
  ,                                       !- View Factor to Ground
  ,                                       !- Number of Vertices
  81.991, 22.86, 3.9624,                  !- X,Y,Z Vertex 1 {m}
  81.991, 22.86, 0,                       !- X,Y,Z Vertex 2 {m}
  78.943, 22.86, 0,                       !- X,Y,Z Vertex 3 {m}
  78.943, 22.86, 3.9624;                  !- X,Y,Z Vertex 4 {m}

OS:Connection,
  {8bb603b3-b426-4c62-a4f2-5edd88172338}, !- Handle
  {1d5b4b0b-35ae-41f1-b14e-9f857a91e740}, !- Name
  ,                                       !- Source Object
  11,                                     !- Outlet Port
  ,                                       !- Target Object
  2;                                      !- Inlet Port

OS:Space,
  {9946f358-1400-476e-83b9-365c9a6742b9}, !- Handle
  Lobby_Flr_1,                            !- Name
  ,                                       !- Space Type Name
  ,                                       !- Default Construction Set Name
  ,                                       !- Default Schedule Set Name
  0,                                      !- Direction of Relative North {deg}
  0,                                      !- X Origin {m}
  0,                                      !- Y Origin {m}
  0,                                      !- Z Origin {m}
  ,                                       !- Building Story Name
  ,                                       !- Thermal Zone Name
  Yes;                                    !- Part of Total Floor Area

OS:SubSurface,
  {7ef449d7-b54a-4dc4-a22b-e58e25eedd32}, !- Handle
  Room_1_Flr_6_Wall_West_Window,          !- Name
  FixedWindow,                            !- Sub Surface Type
  ,                                       !- Construction Name
  {d5e70c84-fdb9-4dec-ab41-799c5d2b13c0}, !- Surface Name
  ,                                       !- Outside Boundary Condition Object
  ,                                       !- View Factor to Ground
  ,                                       !- Shading Control Name
  ,                                       !- Frame and Divider Name
  1,                                      !- Multiplier
  ,                                       !- Number of Vertices
  0, 13.579, 18.484,                      !- X,Y,Z Vertex 1 {m}
  0, 13.579, 17.264,                      !- X,Y,Z Vertex 2 {m}
  0, 6.538, 17.264,                       !- X,Y,Z Vertex 3 {m}
  0, 6.538, 18.484;                       !- X,Y,Z Vertex 4 {m}

OS:Surface,
  {d5e70c84-fdb9-4dec-ab41-799c5d2b13c0}, !- Handle
  Room_1_Flr_6_Wall_West,                 !- Name
  Wall,                                   !- Surface Type
  ,                                       !- Construction Name
  {addf53a5-5252-4c58-bb60-25979e29a7b0}, !- Space Name
  Outdoors,                               !- Outside Boundary Condition
  ,                                       !- Outside Boundary Condition Object
  SunExposed,                             !- Sun Exposure
  WindExposed,                            !- Wind Exposure
  ,                                       !- View Factor to Ground
  ,                                       !- Number of Vertices
  0, 14.326, 19.2,                        !- X,Y,Z Vertex 1 {m}
  0, 14.326, 16.152,                      !- X,Y,Z Vertex 2 {m}
  0, 5.791, 16.152,                       !- X,Y,Z Vertex 3 {m}
  0, 5.791, 19.2;                         !- X,Y,Z Vertex 4 {m}

OS:Connection,
  {2fb74e10-9ec8-4ba4-ac12-d93d96fdd655}, !- Handle
  {1ff94da0-8e73-47e8-807e-e6ae7582a3ce}, !- Name
  ,                                       !- Source Object
  11,                                     !- Outlet Port
  ,                                       !- Target Object
  2;                                      !- Inlet Port

OS:Space,
  {addf53a5-5252-4c58-bb60-25979e29a7b0}, !- Handle
  Room_1_Flr_6,                           !- Name
  ,                                       !- Space Type Name
  ,                                       !- Default Construction Set Name
  ,                                       !- Default Schedule Set Name
  0,                                      !- Direction of Relative North {deg}
  0,                                      !- X Origin {m}
  0,                                      !- Y Origin {m}
  0,                                      !- Z Origin {m}
  ,                                       !- Building Story Name
  ,                                       !- Thermal Zone Name
  Yes;                                    !- Part of Total Floor Area

OS:Schedule:Compact,
  {f2af7a7d-c5fe-4419-9f3b-38541c6fa479}, !- Handle
  MinOA_Sched,                            !- Name
  {f0a1392c-91e3-40cd-8b52-c725e9d431c0}, !- Schedule Type Limits Name
  Through: 12/31,                         !- Field 1
  For: AllDays,                           !- Field 2
  Until: 24:00,                           !- Field 3
  1.0;                                    !- Field 4

OS:InternalMass:Definition,
  {de918ee0-dee7-4fad-96c4-6445477318b8}, !- Handle
  Room_3_Mult9_Flr_6_InternalMass_1 Definition, !- Name
  ,                                       !- Construction Name
  SurfaceArea,                            !- Design Level Calculation Method
  49.0611,                                !- Surface Area {m2}
  ,                                       !- Surface Area per Space Floor Area {dimensionless}
  ;                                       !- Surface Area per Person {m2/person}

OS:InternalMass,
  {676a1dee-c17c-48a1-8b57-b3a3833dda34}, !- Handle
  Room_3_Mult9_Flr_6_InternalMass_1,      !- Name
  {de918ee0-dee7-4fad-96c4-6445477318b8}, !- Internal Mass Definition Name
  {defe2645-49e9-4f8e-8f41-0b8a7abd3814}; !- Space or SpaceType Name

OS:Connection,
  {92ce9618-9c54-4336-b2a0-9efb0a6a41c2}, !- Handle
  {deef4d83-410d-4163-aba4-7f4cde35524c}, !- Name
  ,                                       !- Source Object
  11,                                     !- Outlet Port
  ,                                       !- Target Object
  2;                                      !- Inlet Port

OS:Space,
  {defe2645-49e9-4f8e-8f41-0b8a7abd3814}, !- Handle
  Room_3_Mult9_Flr_6,                     !- Name
  ,                                       !- Space Type Name
  ,                                       !- Default Construction Set Name
  ,                                       !- Default Schedule Set Name
  0,                                      !- Direction of Relative North {deg}
  0,                                      !- X Origin {m}
  0,                                      !- Y Origin {m}
  0,                                      !- Z Origin {m}
  ,                                       !- Building Story Name
  ,                                       !- Thermal Zone Name
  Yes;                                    !- Part of Total Floor Area

OS:Schedule:Compact,
  {7b8455c9-9e40-40a2-a4c3-5c48e219e262}, !- Handle
  BLDG_LIGHT_GUESTROOM_SCH,               !- Name
  {f0a1392c-91e3-40cd-8b52-c725e9d431c0}, !- Schedule Type Limits Name
  Through: 12/31,                         !- Field 1
  For: Weekdays,                          !- Field 2
  Until: 1:00,                            !- Field 3
  0.1859,                                 !- Field 4
  Until: 2:00,                            !- Field 5
  0.1452,                                 !- Field 6
  Until: 5:00,                            !- Field 7
  0.0945,                                 !- Field 8
  Until: 6:00,                            !- Field 9
  0.1859,                                 !- Field 10
  Until: 7:00,                            !- Field 11