
OS:Version,
  {f22e51f9-2b54-4b32-9f5f-408262a9c1b3}, !- Handle
  1.8.0;                                  !- Version Identifier

OS:Site,
  {fce409b1-7f3e-4dd7-8d02-295ef55e5a15}, !- Handle
  USA CA-LOS ANGELES,                     !- Name
  33.92,                                  !- Latitude {deg}
  -118.4,                                 !- Longitude {deg}
  -8,                                     !- Time Zone {hr}
  32,                                     !- Elevation {m}
  City;                                   !- Terrain

OS:SimulationControl,
  {240e0e8a-36a8-4a25-819f-d6ad773146f0}, !- Handle
  Yes,                                    !- Do Zone Sizing Calculation
  Yes,                                    !- Do System Sizing Calculation
  Yes,                                    !- Do Plant Sizing Calculation
  No,                                     !- Run Simulation for Sizing Periods
  Yes,                                    !- Run Simulation for Weather File Run Periods
  0.04,                                   !- Loads Convergence Tolerance Value
  0.2,                                    !- Temperature Convergence Tolerance Value {deltaC}
  FullInteriorAndExterior,                !- Solar Distribution
  25,                                     !- Maximum Number of Warmup Days
  6;                                      !- Minimum Number of Warmup Days

OS:Surface,
  {96537be3-08c0-4277-bbf3-da524e26a86e}, !- Handle
  W_RearStorageFlr4_5_0_0,                !- Name
  Wall,                                   !- Surface Type
  ,                                       !- Construction Name
  {8815128a-3529-4c3a-8c57-1d70028f6a51}, !- Space Name
  Outdoors,                               !- Outside Boundary Condition
  ,                                       !- Outside Boundary Condition Object
  SunExposed,                             !- Sun Exposure
  WindExposed,                            !- Wind Exposure
  ,                                       !- View Factor to Ground
  ,                                       !- Number of Vertices
  52.4743, 0.0488, 11.5824,               !- X,Y,Z Vertex 1 {m}
  52.4743, 0.0488, 8.8392,                !- X,Y,Z Vertex 2 {m}
  54.9133, 0.0488, 8.8392,                !- X,Y,Z Vertex 3 {m}
  54.9133, 0.0488, 11.5824;               !- X,Y,Z Vertex 4 {m}

OS:Space,
  {8815128a-3529-4c3a-8c57-1d70028f6a51}, !- Handle
  RearStorageFlr4,                        !- Name
  ,                                       !- Space Type Name
  ,                                       !- Default Construction Set Name
  ,                                       !- Default Schedule Set Name
  0,                                      !- Direction of Relative North {deg}
  0,                                      !- X Origin {m}
  0,                                      !- Y Origin {m}
  0,                                      !- Z Origin {m}
  ,                                       !- Building Story Name
  ,                                       !- Thermal Zone Name
  Yes;                                    !- Part of Total Floor Area

OS:Space,
  {0bb6d075-384e-47be-8e30-7167abba153f}, !- Handle
  GuestRoom220_223,                       !- Name
  ,                                       !- Space Type Name
  ,                                       !- Default Construction Set Name
  ,                                       !- Default Schedule Set Name
  0,                                      !- Direction of Relative North {deg}
  0,                                      !- X Origin {m}
  0,                                      !- Y Origin {m}
  0,                                      !- Z Origin {m}
  ,                                       !- Building Story Name
  ,                                       !- Thermal Zone Name
  Yes;                                    !- Part of Total Floor Area

OS:Surface,
  {d6c85127-7de0-4bfd-a5a5-2fd45b3149e5}, !- Handle
  P_FrontStairsFlr2_10113_0_10073,        !- Name
  Wall,                                   !- Surface Type
  ,                                       !- Construction Name
  {3e57797b-d34d-4c94-a6d2-020e79914d4b}, !- Space Name
  Surface,                                !- Outside Boundary Condition
  {5c63b08e-c636-49e1-86a3-db7ea9ed365d}, !- Outside Boundary Condition Object
  NoSun,                                  !- Sun Exposure
  NoWind,                                 !- Wind Exposure
  ,                                       !- View Factor to Ground
  ,                                       !- Number of Vertices
  0.0487, 10.1078, 6.096,                 !- X,Y,Z Vertex 1 {m}
  0.0487, 10.1078, 3.3528,                !- X,Y,Z Vertex 2 {m}
  2.4871, 10.1078, 3.3528,                !- X,Y,Z Vertex 3 {m}
  2.4871, 10.1078, 6.096;                 !- X,Y,Z Vertex 4 {m}

OS:Space,
  {3e57797b-d34d-4c94-a6d2-020e79914d4b}, !- Handle
  FrontStairsFlr2,                        !- Name
  ,                                       !- Space Type Name
  ,                                       !- Default Construction Set Name
  ,                                       !- Default Schedule Set Name
  0,                                      !- Direction of Relative North {deg}
  0,                                      !- X Origin {m}
  0,                                      !- Y Origin {m}
  0,                                      !- Z Origin {m}
  ,                                       !- Building Story Name
  ,                                       !- Thermal Zone Name
  Yes;                                    !- Part of Total Floor Area

OS:Surface,
  {2a7a1d3e-20f8-42e9-8410-4f7f346c0735}, !- Handle
  AtticFloor_GR415_418_1_0_0,             !- Name
  Floor,                                  !- Surface Type
  ,                                       !- Construction Name
  {5c15b500-bc79-46ba-9b40-e0b151f262e9}, !- Space Name
  Surface,                                !- Outside Boundary Condition
  {ffb1dfad-352d-4503-81e0-11cd5d3290ae}, !- Outside Boundary Condition Object
  NoSun,                                  !- Sun Exposure
  NoWind,                                 !- Wind Exposure
  ,                                       !- View Factor to Ground
  ,                                       !- Number of Vertices
  62.418006, -3.343842, 11.5824,          !- X,Y,Z Vertex 1 {m}
  62.418006, -11.573442, 11.5824,         !- X,Y,Z Vertex 2 {m}
  46.568406, -11.573442, 11.5824,         !- X,Y,Z Vertex 3 {m}
  46.568406, -3.343842, 11.5824;          !- X,Y,Z Vertex 4 {m}

OS:Space,
  {5c15b500-bc79-46ba-9b40-e0b151f262e9}, !- Handle
  Attic,                                  !- Name
  ,                                       !- Space Type Name
  ,                                       !- Default Construction Set Name
  ,                                       !- Default Schedule Set Name
  0,                                      !- Direction of Relative North {deg}
  -13.906106,                             !- X Origin {m}
  21.681242,                              !- Y Origin {m}
  0,                                      !- Z Origin {m}
  ,                                       !- Building Story Name
  ,                                       !- Thermal Zone Name
  No;                                     !- Part of Total Floor Area

OS:Space,
  {70b8cdb0-d40f-4d4d-a1e8-8ba667120efe}, !- Handle
  GuestRoom313,                           !- Name
  ,                                       !- Space Type Name
  ,                                       !- Default Construction Set Name
  ,                                       !- Default Schedule Set Name
  0,                                      !- Direction of Relative North {deg}
  0,                                      !- X Origin {m}
  0,                                      !- Y Origin {m}
  0,                                      !- Z Origin {m}
  ,                                       !- Building Story Name
  ,                                       !- Thermal Zone Name
  Yes;                                    !- Part of Total Floor Area

OS:Surface,
  {1ca4360f-45a5-414a-ae1d-d6caaceced1b}, !- Handle
  R_GuestRoom420_423_1_0_0,               !- Name
  RoofCeiling,                            !- Surface Type
  ,                                       !- Construction Name
  {8c7b5c4a-f1f6-4cdf-b38b-62384412f162}, !- Space Name
  Surface,                                !- Outside Boundary Condition
  {86105f5b-3701-43e2-abf5-ac73a207cf2d}, !- Outside Boundary Condition Object
  NoSun,                                  !- Sun Exposure
  NoWind,                                 !- Wind Exposure
  ,                                       !- View Factor to Ground
  ,                                       !- Number of Vertices
  23.8231, 10.1078, 11.5824,              !- X,Y,Z Vertex 1 {m}
  23.8231, 18.3374, 11.5824,              !- X,Y,Z Vertex 2 {m}
  7.9735, 18.3374, 11.5824,               !- X,Y,Z Vertex 3 {m}
  7.9735, 10.1078, 11.5824;               !- X,Y,Z Vertex 4 {m}

OS:Space,
  {8c7b5c4a-f1f6-4cdf-b38b-62384412f162}, !- Handle
  GuestRoom420_423,                       !- Name
  ,                                       !- Space Type Name
  ,                                       !- Default Construction Set Name
  ,                                       !- Default Schedule Set Name
  0,                                      !- Direction of Relative North {deg}
  0,                                      !- X Origin {m}
  0,                                      !- Y Origin {m}
  0,                                      !- Z Origin {m}
  ,                                       !- Building Story Name
  ,                                       !- Thermal Zone Name
  Yes;                                    !- Part of Total Floor Area

OS:Space,
  {2d4eea1b-7394-4a42-a9a7-adf87886759b}, !- Handle
  GuestRoom309_312,                       !- Name
  ,                                       !- Space Type Name
  ,                                       !- Default Construction Set Name
  ,                                       !- Default Schedule Set Name
  0,                                      !- Direction of Relative North {deg}
  0,                                      !- X Origin {m}
  0,                                      !- Y Origin {m}
  0,                                      !- Z Origin {m}
  ,                                       !- Building Story Name
  ,                                       !- Thermal Zone Name
  Yes;                                    !- Part of Total Floor Area

OS:Space,
  {1ab96ac7-935e-4ea6-8181-5cbdb6ca9914}, !- Handle
  EmployeeLoungeFlr1,                     !- Name
  ,                                       !- Space Type Name
  ,                                       !- Default Construction Set Name
  ,                                       !- Default Schedule Set Name
  0,                                      !- Direction of Relative North {deg}
  0,                                      !- X Origin {m}
  0,                                      !- Y Origin {m}
  0,                                      !- Z Origin {m}
  ,                                       !- Building Story Name
  ,                                       !- Thermal Zone Name
  Yes;                                    !- Part of Total Floor Area

OS:Surface,
  {ef869c9a-095b-473f-a2fd-5e3bf8ba19f2}, !- Handle
  P_CorridorFlr2_18_0_0,                  !- Name
  Wall,                                   !- Surface Type
  ,                                       !- Construction Name
  {ad5af156-d31e-40da-bb34-484e2a1392c1}, !- Space Name
  Surface,                                !- Outside Boundary Condition
  {73a90a9a-36ae-41d2-978d-a08e8f968594}, !- Outside Boundary Condition Object
  NoSun,                                  !- Sun Exposure
  NoWind,                                 !- Wind Exposure
  ,                                       !- View Factor to Ground
  ,                                       !- Number of Vertices
  19.8607, 8.279, 6.096,                  !- X,Y,Z Vertex 1 {m}
  19.8607, 8.279, 3.3528,                 !- X,Y,Z Vertex 2 {m}
  32.6623, 8.279, 3.3528,                 !- X,Y,Z Vertex 3 {m}
  32.6623, 8.279, 6.096;                  !- X,Y,Z Vertex 4 {m}

OS:Space,
  {ad5af156-d31e-40da-bb34-484e2a1392c1}, !- Handle
  CorridorFlr2,                           !- Name
  ,                                       !- Space Type Name
  ,                                       !- Default Construction Set Name
  ,                                       !- Default Schedule Set Name
  0,                                      !- Direction of Relative North {deg}
  0,                                      !- X Origin {m}
  0,                                      !- Y Origin {m}
  0,                                      !- Z Origin {m}
  ,                                       !- Building Story Name
  ,                                       !- Thermal Zone Name
  Yes;                                    !- Part of Total Floor Area

OS:Space,
  {4d5db95c-a7f0-4621-8926-457c370d1fa5}, !- Handle
  GuestRoom413,                           !- Name
  ,                                       !- Space Type Name
  ,                                       !- Default Construction Set Name
  ,                                       !- Default Schedule Set Name
  0,                                      !- Direction of Relative North {deg}
  0,                                      !- X Origin {m}
  0,                                      !- Y Origin {m}
  0,                                      !- Z Origin {m}
  ,                                       !- Building Story Name
  ,                                       !- Thermal Zone Name
  Yes;                                    !- Part of Total Floor Area

OS:Space,
  {794b9fc9-72a7-43c0-a18f-004348fa109c}, !- Handle
  GuestRoom301,                           !- Name
  ,                                       !- Space Type Name
  ,                                       !- Default Construction Set Name
  ,                                       !- Default Schedule Set Name
  0,                                      !- Direction of Relative North {deg}
  0,                                      !- X Origin {m}
  0,                                      !- Y Origin {m}
  0,                                      !- Z Origin {m}
  ,                                       !- Building Story Name
  ,                                       !- Thermal Zone Name
  Yes;                                    !- Part of Total Floor Area

OS:Space,
  {8721d001-ad4a-4b23-b455-4cc00fb39683}, !- Handle
  GuestRoom103,                           !- Name
  ,                                       !- Space Type Name
  ,                                       !- Default Construction Set Name
  ,                                       !- Default Schedule Set Name
  0,                                      !- Direction of Relative North {deg}
  0,                                      !- X Origin {m}
  0,                                      !- Y Origin {m}
  0,                                      !- Z Origin {m}
  ,                                       !- Building Story Name
  ,                                       !- Thermal Zone Name
  Yes;                                    !- Part of Total Floor Area

OS:Surface,
  {645a875b-8f4d-4c86-bf85-77d196a96e4f}, !- Handle
  P_CorridorFlr4_4_0_0,                   !- Name
  Wall,                                   !- Surface Type
  ,                                       !- Construction Name
  {1e003952-f1e8-49ef-8a95-583fe1f3a23e}, !- Space Name
  Surface,                                !- Outside Boundary Condition
  {187b3fea-0b3b-4956-a11f-297f682f1d46}, !- Outside Boundary Condition Object
  NoSun,                                  !- Sun Exposure
  NoWind,                                 !- Wind Exposure
  ,                                       !- View Factor to Ground
  ,                                       !- Number of Vertices
  52.4743, 10.1078, 11.5824,              !- X,Y,Z Vertex 1 {m}
  52.4743, 10.1078, 8.8392,               !- X,Y,Z Vertex 2 {m}
  48.5119, 10.1078, 8.8392,               !- X,Y,Z Vertex 3 {m}
  48.5119, 10.1078, 11.5824;              !- X,Y,Z Vertex 4 {m}

OS:Space,
  {1e003952-f1e8-49ef-8a95-583fe1f3a23e}, !- Handle
  CorridorFlr4,                           !- Name
  ,                                       !- Space Type Name
  ,                                       !- Default Construction Set Name
  ,                                       !- Default Schedule Set Name
  0,                                      !- Direction of Relative North {deg}
  0,                                      !- X Origin {m}
  0,                                      !- Y Origin {m}
  0,                                      !- Z Origin {m}
  ,                                       !- Building Story Name
  ,                                       !- Thermal Zone Name
  Yes;                                    !- Part of Total Floor Area

OS:Space,
  {e9400cd2-fce4-46c7-b7ae-f61bd99f23ab}, !- Handle
  GuestRoom202_205,                       !- Name
  ,                                       !- Space Type Name
  ,                                       !- Default Construction Set Name
  ,                                       !- Default Schedule Set Name
  0,                                      !- Direction of Relative North {deg}
  0,                                      !- X Origin {m}
  0,                                      !- Y Origin {m}
  0,                                      !- Z Origin {m}
  ,                                       !- Building Story Name
  ,                                       !- Thermal Zone Name
  Yes;                                    !- Part of Total Floor Area

OS:Space,
  {34791539-b792-4b71-acd4-05d3efbee3d2}, !- Handle
  FrontStorageFlr1,                       !- Name
  ,                                       !- Space Type Name
  ,                                       !- Default Construction Set Name
  ,                                       !- Default Schedule Set Name
  0,                                      !- Direction of Relative North {deg}
  0,                                      !- X Origin {m}
  0,                                      !- Y Origin {m}
  0,                                      !- Z Origin {m}
  ,                                       !- Building Story Name
  ,                                       !- Thermal Zone Name
  Yes;                                    !- Part of Total Floor Area

OS:Surface,
  {e8fc4330-3723-4b88-8284-78ada13328e6}, !- Handle
  C_FrontStairsFlr1_1_0_0,                !- Name
  RoofCeiling,                            !- Surface Type
  ,                                       !- Construction Name
  {1ee80b35-40e6-4279-a198-36ad423438e2}, !- Space Name
  Surface,                                !- Outside Boundary Condition
  {ee7e4563-0d6b-4d69-ae35-03c109cf6c7e}, !- Outside Boundary Condition Object
  NoSun,                                  !- Sun Exposure
  NoWind,                                 !- Wind Exposure
  ,                                       !- View Factor to Ground
  ,                                       !- Number of Vertices
  2.4871, 10.1078, 3.3528,                !- X,Y,Z Vertex 1 {m}
  2.4871, 18.3374, 3.3528,                !- X,Y,Z Vertex 2 {m}
  0.0487, 18.3374, 3.3528,                !- X,Y,Z Vertex 3 {m}
  0.0487, 10.1078, 3.3528;                !- X,Y,Z Vertex 4 {m}

OS:Space,
  {1ee80b35-40e6-4279-a198-36ad423438e2}, !- Handle
  FrontStairsFlr1,                        !- Name
  ,                                       !- Space Type Name
  ,                                       !- Default Construction Set Name
  ,                                       !- Default Schedule Set Name
  0,                                      !- Direction of Relative North {deg}
  0,                                      !- X Origin {m}
  0,                                      !- Y Origin {m}
  0,                                      !- Z Origin {m}
  ,                                       !- Building Story Name
  ,                                       !- Thermal Zone Name
  Yes;                                    !- Part of Total Floor Area

OS:Surface,
  {fb2b4fda-6d71-4239-b38e-6c1be693135a}, !- Handle
  SouthRoof,                              !- Name
  RoofCeiling,                            !- Surface Type
  ,                                       !- Construction Name
  {5c15b500-bc79-46ba-9b40-e0b151f262e9}, !- Space Name
  Outdoors,                               !- Outside Boundary Condition
  ,                                       !- Outside Boundary Condition Object
  SunExposed,                             !- Sun Exposure
  WindExposed,                            !- Wind Exposure
  ,                                       !- View Factor to Ground
  ,                                       !- Number of Vertices
  23.184806, -12.488442, 14.8624,         !- X,Y,Z Vertex 1 {m}
  13.354806, -22.232442, 11.5824,         !- X,Y,Z Vertex 2 {m}
  69.419406, -22.232442, 11.5824,         !- X,Y,Z Vertex 3 {m}
  59.589406, -12.488442, 14.8624;         !- X,Y,Z Vertex 4 {m}

OS:Surface,
  {8580d187-e7e3-4805-8b64-bdbbc8437b89}, !- Handle
  P_GuestRoom406_408_2_0_0,               !- Name
  Wall,                                   !- Surface Type
  ,                                       !- Construction Name
  {89afceca-2441-4734-b2ab-74daf69bd488}, !- Space Name
  Surface,                                !- Outside Boundary Condition
  {6a9372c4-6679-4a97-9928-550d3ac5fb60}, !- Outside Boundary Condition Object
  NoSun,                                  !- Sun Exposure
  NoWind,                                 !- Wind Exposure
  ,                                       !- View Factor to Ground
  ,                                       !- Number of Vertices
  32.6623, 0.0488, 11.5824,               !- X,Y,Z Vertex 1 {m}
  32.6623, 0.0488, 8.8392,                !- X,Y,Z Vertex 2 {m}
  32.6623, 8.279, 8.8392,                 !- X,Y,Z Vertex 3 {m}
  32.6623, 8.279, 11.5824;                !- X,Y,Z Vertex 4 {m}

OS:Space,
  {89afceca-2441-4734-b2ab-74daf69bd488}, !- Handle
  GuestRoom406_408,                       !- Name
  ,                                       !- Space Type Name
  ,                                       !- Default Construction Set Name
  ,                                       !- Default Schedule Set Name
  0,                                      !- Direction of Relative North {deg}
  0,                                      !- X Origin {m}
  0,                                      !- Y Origin {m}
  0,                                      !- Z Origin {m}
  ,                                       !- Building Story Name
  ,                                       !- Thermal Zone Name
  Yes;                                    !- Part of Total Floor Area

OS:Surface,
  {6fa52fc5-3172-4fec-9feb-698f47e31032}, !- Handle
  F_FrontStorageFlr4_10277_0_10147,       !- Name
  Floor,                                  !- Surface Type
  ,                                       !- Construction Name
  {58383160-8d1a-4fdb-b82d-00029c9b2378}, !- Space Name
  Surface,                                !- Outside Boundary Condition
  {a0e551b6-9cf8-4c58-9f59-cd18cc1af16a}, !- Outside Boundary Condition Object
  NoSun,                                  !- Sun Exposure
  NoWind,                                 !- Wind Exposure
  ,                                       !- View Factor to Ground
  ,                                       !- Number of Vertices
  4.0111, 18.3374, 8.8392,                !- X,Y,Z Vertex 1 {m}
  4.0111, 10.1078, 8.8392,                !- X,Y,Z Vertex 2 {m}
  2.4871, 10.1078, 8.8392,                !- X,Y,Z Vertex 3 {m}
  2.4871, 18.3374, 8.8392;                !- X,Y,Z Vertex 4 {m}

OS:Space,
  {58383160-8d1a-4fdb-b82d-00029c9b2378}, !- Handle
  FrontStorageFlr4,                       !- Name
  ,                                       !- Space Type Name
  ,                                       !- Default Construction Set Name
  ,                                       !- Default Schedule Set Name
  0,                                      !- Direction of Relative North {deg}
  0,                                      !- X Origin {m}
  0,                                      !- Y Origin {m}
  0,                                      !- Z Origin {m}
  ,                                       !- Building Story Name
  ,                                       !- Thermal Zone Name
  Yes;                                    !- Part of Total Floor Area

OS:Surface,
  {c675c710-9b40-4340-8699-4b831f6c94f7}, !- Handle
  C_RearStairsFlr3_1_0_0,                 !- Name
  RoofCeiling,                            !- Surface Type
  ,                                       !- Construction Name
  {b1d94079-e1f4-4e6f-8a7d-28bc5e138323}, !- Space Name
  Surface,                                !- Outside Boundary Condition
  {e0125005-96b9-4237-b561-3128eacfbd4b}, !- Outside Boundary Condition Object
  NoSun,                                  !- Sun Exposure
  NoWind,                                 !- Wind Exposure
  ,                                       !- View Factor to Ground
  ,                                       !- Number of Vertices
  54.9133, 10.1078, 8.8392,               !- X,Y,Z Vertex 1 {m}
  54.9133, 18.3374, 8.8392,               !- X,Y,Z Vertex 2 {m}
  52.4743, 18.3374, 8.8392,               !- X,Y,Z Vertex 3 {m}
  52.4743, 10.1078, 8.8392;               !- X,Y,Z Vertex 4 {m}

OS:Space,
  {b1d94079-e1f4-4e6f-8a7d-28bc5e138323}, !- Handle
  RearStairsFlr3,                         !- Name
  ,                                       !- Space Type Name
  ,                                       !- Default Construction Set Name
  ,                                       !- Default Schedule Set Name
  0,                                      !- Direction of Relative North {deg}
  0,                                      !- X Origin {m}
  0,                                      !- Y Origin {m}
  0,                                      !- Z Origin {m}
  ,                                       !- Building Story Name
  ,                                       !- Thermal Zone Name
  Yes;                                    !- Part of Total Floor Area

OS:Surface,
  {dd01ad70-820a-46cb-97fb-be48246c1c2e}, !- Handle
  W_GuestRoom104_3_0_0,                   !- Name
  Wall,                                   !- Surface Type
  ,                                       !- Construction Name
  {d62c7cee-8a1d-4237-982c-56a33b53a4b0}, !- Space Name
  Outdoors,                               !- Outside Boundary Condition
  ,                                       !- Outside Boundary Condition Object
  SunExposed,                             !- Sun Exposure
  WindExposed,                            !- Wind Exposure
  ,                                       !- View Factor to Ground
  ,                                       !- Number of Vertices
  52.4743, 18.3374, 3.3528,               !- X,Y,Z Vertex 1 {m}
  52.4743, 18.3374, 0,                    !- X,Y,Z Vertex 2 {m}
  48.5119, 18.3374, 0,                    !- X,Y,Z Vertex 3 {m}
  48.5119, 18.3374, 3.3528;               !- X,Y,Z Vertex 4 {m}

OS:Space,
  {d62c7cee-8a1d-4237-982c-56a33b53a4b0}, !- Handle
  GuestRoom104,                           !- Name
  ,                                       !- Space Type Name
  ,                                       !- Default Construction Set Name
  ,                                       !- Default Schedule Set Name
  0,                                      !- Direction of Relative North {deg}
  0,                                      !- X Origin {m}
  0,                                      !- Y Origin {m}
  0,                                      !- Z Origin {m}
  ,                                       !- Building Story Name
  ,                                       !- Thermal Zone Name
  Yes;                                    !- Part of Total Floor Area

OS:Surface,
  {18140ef0-5bc8-4468-bb45-21cd5694df83}, !- Handle
  F_GuestRoom402_405_10227_0_10129,       !- Name
  Floor,                                  !- Surface Type
  ,                                       !- Construction Name
  {1854fe35-0643-45d8-a978-62b8fb89c358}, !- Space Name
  Surface,                                !- Outside Boundary Condition
  {4af4360e-90c5-4f6d-a947-e9ce384e1d35}, !- Outside Boundary Condition Object
  NoSun,                                  !- Sun Exposure
  NoWind,                                 !- Wind Exposure
  ,                                       !- View Factor to Ground
  ,                                       !- Number of Vertices
  19.8607, 8.279, 8.8392,                 !- X,Y,Z Vertex 1 {m}
  19.8607, 0.0488, 8.8392,                !- X,Y,Z Vertex 2 {m}
  4.0111, 0.0488, 8.8392,                 !- X,Y,Z Vertex 3 {m}
  4.0111, 8.279, 8.8392;                  !- X,Y,Z Vertex 4 {m}

OS:Space,
  {1854fe35-0643-45d8-a978-62b8fb89c358}, !- Handle
  GuestRoom402_405,                       !- Name
  ,                                       !- Space Type Name
  ,                                       !- Default Construction Set Name
  ,                                       !- Default Schedule Set Name
  0,                                      !- Direction of Relative North {deg}
  0,                                      !- X Origin {m}
  0,                                      !- Y Origin {m}
  0,                                      !- Z Origin {m}
  ,                                       !- Building Story Name
  ,                                       !- Thermal Zone Name
  Yes;                                    !- Part of Total Floor Area

OS:Surface,
  {51d58e52-873d-480d-8490-d2c01016e8b5}, !- Handle
  P_GuestRoom220_223_10110_0_10070,       !- Name