
OS:Version,
  {d365ce3a-8a18-43fe-9a5a-374ec031c9e9}, !- Handle
  1.3.0;                                  !- Version Identifier

OS:Site,
  {fce409b1-7f3e-4dd7-8d02-295ef55e5a15}, !- Handle
  USA CA-LOS ANGELES,                     !- Name
  33.92,                                  !- Latitude {deg}
  -118.4,                                 !- Longitude {deg}
  -8,                                     !- Time Zone {hr}
  32,                                     !- Elevation {m}
  City;                                   !- Terrain

OS:SimulationControl,
  {240e0e8a-36a8-4a25-819f-d6ad773146f0}, !- Handle
  Yes,                                    !- Do Zone Sizing Calculation
  Yes,                                    !- Do System Sizing Calculation
  Yes,                                    !- Do Plant Sizing Calculation
  No,                                     !- Run Simulation for Sizing Periods
  Yes,                                    !- Run Simulation for Weather File Run Periods
  0.04,                                   !- Loads Convergence Tolerance Value
  0.2,                                    !- Temperature Convergence Tolerance Value {deltaC}
  FullInteriorAndExterior,                !- Solar Distribution
  25,                                     !- Maximum Number of Warmup Days
  6;                                      !- Minimum Number of Warmup Days

OS:Surface,
  {96537be3-08c0-4277-bbf3-da524e26a86e}, !- Handle
  W_RearStorageFlr4_5_0_0,                !- Name
  Wall,                                   !- Surface Type
  {8e96221b-9718-4eec-9772-232bd12aa9b1}, !- Construction Name
  {8815128a-3529-4c3a-8c57-1d70028f6a51}, !- Space Name
  Outdoors,                               !- Outside Boundary Condition
  ,                                       !- Outside Boundary Condition Object
  SunExposed,                             !- Sun Exposure
  WindExposed,                            !- Wind Exposure
  ,                                       !- View Factor to Ground
  ,                                       !- Number of Vertices
  52.4743, 0.0488, 11.5824,               !- X,Y,Z Vertex 1 {m}
  52.4743, 0.0488, 8.8392,                !- X,Y,Z Vertex 2 {m}
  54.9133, 0.0488, 8.8392,                !- X,Y,Z Vertex 3 {m}
  54.9133, 0.0488, 11.5824;               !- X,Y,Z Vertex 4 {m}

OS:Construction,
  {8e96221b-9718-4eec-9772-232bd12aa9b1}, !- Handle
  Steel Frame Res Ext Wall,               !- Name
  {e2d7b9ad-ef15-4087-a868-bf2dce4f760a}, !- Surface Rendering Name
  {71112697-4063-4224-befc-3c6b8d906a68}, !- Layer 1
  {328bc09c-9011-4143-9946-9f15cc6242fb}, !- Layer 2
  {6f424d7f-3b27-4d5a-9901-5aaf4e5801a8}; !- Layer 3

OS:Material,
  {71112697-4063-4224-befc-3c6b8d906a68}, !- Handle
  Wood Siding,                            !- Name
  MediumSmooth,                           !- Roughness
  0.01,                                   !- Thickness {m}
  0.11,                                   !- Conductivity {W/m-K}
  544.62,                                 !- Density {kg/m3}
  1210,                                   !- Specific Heat {J/kg-K}
  0.9,                                    !- Thermal Absorptance
  0.78,                                   !- Solar Absorptance
  0.78;                                   !- Visible Absorptance

OS:Material,
  {328bc09c-9011-4143-9946-9f15cc6242fb}, !- Handle
  Steel Frame Res Wall Insulation,        !- Name
  MediumRough,                            !- Roughness
  0.0235471103181338,                     !- Thickness {m}
  0.049,                                  !- Conductivity {W/m-K}
  265,                                    !- Density {kg/m3}
  836.8,                                  !- Specific Heat {J/kg-K}
  0.9,                                    !- Thermal Absorptance
  0.7,                                    !- Solar Absorptance
  0.7;                                    !- Visible Absorptance

OS:Material,
  {6f424d7f-3b27-4d5a-9901-5aaf4e5801a8}, !- Handle
  1/2IN Gypsum,                           !- Name
  Smooth,                                 !- Roughness
  0.0127,                                 !- Thickness {m}
  0.16,                                   !- Conductivity {W/m-K}
  784.9,                                  !- Density {kg/m3}
  830,                                    !- Specific Heat {J/kg-K}
  0.9,                                    !- Thermal Absorptance
  0.92,                                   !- Solar Absorptance
  0.92;                                   !- Visible Absorptance

OS:ThermalZone,
  {2976cd1f-d24e-4249-bcef-7b1095994c88}, !- Handle
  RearStorageFlr4 Thermal Zone,           !- Name
  1,                                      !- Multiplier
  ,                                       !- Ceiling Height {m}
  ,                                       !- Volume {m3}
  ,                                       !- Floor Area {m2}
  ,                                       !- Zone Inside Convection Algorithm
  ,                                       !- Zone Outside Convection Algorithm
  ,                                       !- Zone Conditioning Equipment List Name
  {1f913b3f-5ad6-4c03-b35c-827557358a3d}, !- Zone Air Inlet Port List
  {f0a6d3cf-e972-4579-9ef6-b776d5869d30}, !- Zone Air Exhaust Port List
  {e1b6feb7-4016-40f4-a45d-bd816dd03229}, !- Zone Air Node Name
  ,                                       !- Zone Return Air Node Name
  ,                                       !- Primary Daylighting Control Name
  ,                                       !- Fraction of Zone Controlled by Primary Daylighting Control
  ,                                       !- Secondary Daylighting Control Name
  ,                                       !- Fraction of Zone Controlled by Secondary Daylighting Control
  ,                                       !- Illuminance Map Name
  {49a24680-51f1-4dd6-9ded-26be761cfecb}, !- Group Rendering Name
  {00936481-924c-4ace-8c5d-d9f661b5d266}, !- Thermostat Name
  No;                                     !- Use Ideal Air Loads

OS:Node,
  {37ff361e-dca2-4850-97a3-7ee64738fdd4}, !- Handle
  {1c0cd528-32ce-44b1-a3ae-7332dc24e043}, !- Name
  {e1b6feb7-4016-40f4-a45d-bd816dd03229}, !- Inlet Port
  ;                                       !- Outlet Port

OS:Connection,
  {e1b6feb7-4016-40f4-a45d-bd816dd03229}, !- Handle
  {a248c1c8-4851-4051-ab18-bf5727dcc399}, !- Name
  {2976cd1f-d24e-4249-bcef-7b1095994c88}, !- Source Object
  11,                                     !- Outlet Port
  {37ff361e-dca2-4850-97a3-7ee64738fdd4}, !- Target Object
  2;                                      !- Inlet Port

OS:PortList,
  {1f913b3f-5ad6-4c03-b35c-827557358a3d}, !- Handle
  {e885a734-43e7-4870-ad68-ef97baa9996f}, !- Name
  {2976cd1f-d24e-4249-bcef-7b1095994c88}; !- HVAC Component

OS:PortList,
  {f0a6d3cf-e972-4579-9ef6-b776d5869d30}, !- Handle
  {1a5cb04e-3e0d-40db-9cb7-5ef64d729571}, !- Name
  {2976cd1f-d24e-4249-bcef-7b1095994c88}; !- HVAC Component

OS:Sizing:Zone,
  {44f74d71-af38-4299-939e-28239146723c}, !- Handle
  {2976cd1f-d24e-4249-bcef-7b1095994c88}, !- Zone or ZoneList Name
  14,                                     !- Zone Cooling Design Supply Air Temperature {C}
  40,                                     !- Zone Heating Design Supply Air Temperature {C}
  0.0085,                                 !- Zone Cooling Design Supply Air Humidity Ratio {kg-H2O/kg-air}
  0.008,                                  !- Zone Heating Design Supply Air Humidity Ratio {kg-H2O/kg-air}
  ,                                       !- Zone Heating Sizing Factor
  ,                                       !- Zone Cooling Sizing Factor
  DesignDay,                              !- Cooling Design Air Flow Method
  ,                                       !- Cooling Design Air Flow Rate {m3/s}
  ,                                       !- Cooling Minimum Air Flow per Zone Floor Area {m3/s-m2}
  ,                                       !- Cooling Minimum Air Flow {m3/s}
  ,                                       !- Cooling Minimum Air Flow Fraction
  DesignDay,                              !- Heating Design Air Flow Method
  ,                                       !- Heating Design Air Flow Rate {m3/s}
  ,                                       !- Heating Maximum Air Flow per Zone Floor Area {m3/s-m2}
  ,                                       !- Heating Maximum Air Flow {m3/s}
  ,                                       !- Heating Maximum Air Flow Fraction
  ,                                       !- Design Zone Air Distribution Effectiveness in Cooling Mode
  ;                                       !- Design Zone Air Distribution Effectiveness in Heating Mode

OS:ZoneHVAC:EquipmentList,
  {37283b3e-6963-49b8-8887-e08d5683bb03}, !- Handle
  {b9007fec-ca2a-417c-9604-7cfb6e08cc9c}, !- Name
  {2976cd1f-d24e-4249-bcef-7b1095994c88}; !- Thermal Zone

OS:Space,
  {8815128a-3529-4c3a-8c57-1d70028f6a51}, !- Handle
  RearStorageFlr4,                        !- Name
  ,                                       !- Space Type Name
  ,                                       !- Default Construction Set Name
  ,                                       !- Default Schedule Set Name
  0,                                      !- Direction of Relative North {deg}
  0,                                      !- X Origin {m}
  0,                                      !- Y Origin {m}
  0,                                      !- Z Origin {m}
  ,                                       !- Building Story Name
  {2976cd1f-d24e-4249-bcef-7b1095994c88}, !- Thermal Zone Name
  Yes;                                    !- Part of Total Floor Area

OS:ThermostatSetpoint:DualSetpoint,
  {00936481-924c-4ace-8c5d-d9f661b5d266}, !- Handle
  {76441a1b-0960-42a2-b1b7-0c5f10c24683}, !- Name
  {363843d3-b7b0-44d2-a33a-0011b44de006}, !- Heating Setpoint Temperature Schedule Name
  {86c5f2eb-d4ed-46f8-9fa3-8d4530502427}; !- Cooling Setpoint Temperature Schedule Name

OS:Schedule:Compact,
  {363843d3-b7b0-44d2-a33a-0011b44de006}, !- Handle
  UnitHeater_HtgSP_Sch,                   !- Name
  {6f4a1c6d-23b6-4f84-b5c0-b12ad95427f8}, !- Schedule Type Limits Name
  Through: 12/31,                         !- Field 1
  For: AllDays,                           !- Field 2
  Until: 24:00,                           !- Field 3
  15.6;                                   !- Field 4

OS:ScheduleTypeLimits,
  {6f4a1c6d-23b6-4f84-b5c0-b12ad95427f8}, !- Handle
  Temperature,                            !- Name
  -60,                                    !- Lower Limit Value {BasedOnField A4}
  200,                                    !- Upper Limit Value {BasedOnField A4}
  CONTINUOUS,                             !- Numeric Type
  Temperature;                            !- Unit Type

OS:Schedule:Compact,
  {86c5f2eb-d4ed-46f8-9fa3-8d4530502427}, !- Handle
  UnitHeater_ClgSP_Sch,                   !- Name
  {6f4a1c6d-23b6-4f84-b5c0-b12ad95427f8}, !- Schedule Type Limits Name
  Through: 12/31,                         !- Field 1
  For: AllDays,                           !- Field 2
  Until: 24:00,                           !- Field 3
  40;                                     !- Field 4

OS:ThermalZone,
  {32e4db13-6def-4c97-9914-24f1a05b9dc0}, !- Handle
  GuestRoom220_223 Thermal Zone,          !- Name
  1,                                      !- Multiplier
  ,                                       !- Ceiling Height {m}
  ,                                       !- Volume {m3}
  ,                                       !- Floor Area {m2}
  ,                                       !- Zone Inside Convection Algorithm
  ,                                       !- Zone Outside Convection Algorithm
  ,                                       !- Zone Conditioning Equipment List Name
  {1ac029e1-7aee-471a-ac17-4e644df0ba92}, !- Zone Air Inlet Port List
  {50284482-1f7a-407d-a4aa-63e61750c328}, !- Zone Air Exhaust Port List
  {5114e439-1089-411a-afdb-0973c5941650}, !- Zone Air Node Name
  ,                                       !- Zone Return Air Node Name
  ,                                       !- Primary Daylighting Control Name
  ,                                       !- Fraction of Zone Controlled by Primary Daylighting Control
  ,                                       !- Secondary Daylighting Control Name
  ,                                       !- Fraction of Zone Controlled by Secondary Daylighting Control
  ,                                       !- Illuminance Map Name
  {ffac8b51-17e3-42c1-80af-ce3fdc91b01b}, !- Group Rendering Name
  {f92a1f12-c34b-45ff-8839-290074e8e61d}, !- Thermostat Name
  No;                                     !- Use Ideal Air Loads

OS:Node,
  {5f9f5bbf-e73c-4ba2-b821-94242617b8cb}, !- Handle
  {673e6095-8f6c-4e87-be4e-9b8e51eff75f}, !- Name
  {5114e439-1089-411a-afdb-0973c5941650}, !- Inlet Port
  ;                                       !- Outlet Port

OS:Connection,
  {5114e439-1089-411a-afdb-0973c5941650}, !- Handle
  {18eae09e-81fc-4f1b-86f8-3d79451d7b26}, !- Name
  {32e4db13-6def-4c97-9914-24f1a05b9dc0}, !- Source Object
  11,                                     !- Outlet Port
  {5f9f5bbf-e73c-4ba2-b821-94242617b8cb}, !- Target Object
  2;                                      !- Inlet Port

OS:PortList,
  {1ac029e1-7aee-471a-ac17-4e644df0ba92}, !- Handle
  {8c3b053f-b24f-4f1f-ace1-47be6170e610}, !- Name
  {32e4db13-6def-4c97-9914-24f1a05b9dc0}; !- HVAC Component

OS:PortList,
  {50284482-1f7a-407d-a4aa-63e61750c328}, !- Handle
  {10cdd25e-bf7c-456c-92cb-c1ab48fbdd25}, !- Name
  {32e4db13-6def-4c97-9914-24f1a05b9dc0}; !- HVAC Component

OS:Sizing:Zone,
  {2dd5ded9-a85a-4afa-8f9f-9b12b8489e8f}, !- Handle
  {32e4db13-6def-4c97-9914-24f1a05b9dc0}, !- Zone or ZoneList Name
  14,                                     !- Zone Cooling Design Supply Air Temperature {C}
  40,                                     !- Zone Heating Design Supply Air Temperature {C}
  0.0085,                                 !- Zone Cooling Design Supply Air Humidity Ratio {kg-H2O/kg-air}
  0.008,                                  !- Zone Heating Design Supply Air Humidity Ratio {kg-H2O/kg-air}
  ,                                       !- Zone Heating Sizing Factor
  ,                                       !- Zone Cooling Sizing Factor
  DesignDay,                              !- Cooling Design Air Flow Method
  ,                                       !- Cooling Design Air Flow Rate {m3/s}
  ,                                       !- Cooling Minimum Air Flow per Zone Floor Area {m3/s-m2}
  ,                                       !- Cooling Minimum Air Flow {m3/s}
  ,                                       !- Cooling Minimum Air Flow Fraction
  DesignDay,                              !- Heating Design Air Flow Method
  ,                                       !- Heating Design Air Flow Rate {m3/s}
  ,                                       !- Heating Maximum Air Flow per Zone Floor Area {m3/s-m2}
  ,                                       !- Heating Maximum Air Flow {m3/s}
  ,                                       !- Heating Maximum Air Flow Fraction
  ,                                       !- Design Zone Air Distribution Effectiveness in Cooling Mode
  ;                                       !- Design Zone Air Distribution Effectiveness in Heating Mode

OS:ZoneHVAC:EquipmentList,
  {25ec7ffa-601d-4efe-809a-790f4b64ec8b}, !- Handle
  {26922ad2-b08e-48f4-9270-b900573739b6}, !- Name
  {32e4db13-6def-4c97-9914-24f1a05b9dc0}; !- Thermal Zone

OS:Space,
  {0bb6d075-384e-47be-8e30-7167abba153f}, !- Handle
  GuestRoom220_223,                       !- Name
  ,                                       !- Space Type Name
  ,                                       !- Default Construction Set Name
  ,                                       !- Default Schedule Set Name
  0,                                      !- Direction of Relative North {deg}
  0,                                      !- X Origin {m}
  0,                                      !- Y Origin {m}
  0,                                      !- Z Origin {m}
  ,                                       !- Building Story Name
  {32e4db13-6def-4c97-9914-24f1a05b9dc0}, !- Thermal Zone Name
  Yes;                                    !- Part of Total Floor Area

OS:ThermostatSetpoint:DualSetpoint,
  {f92a1f12-c34b-45ff-8839-290074e8e61d}, !- Handle
  {aa64172e-8c34-4ce8-9228-67ade37d30c3}, !- Name
  {bcb131a0-de6e-4388-935e-0883217a254e}, !- Heating Setpoint Temperature Schedule Name
  {6e297deb-afd0-4efd-9409-e86aaf5ec0ff}; !- Cooling Setpoint Temperature Schedule Name

OS:Schedule:Compact,
  {bcb131a0-de6e-4388-935e-0883217a254e}, !- Handle
  HTGSETP_SCH,                            !- Name
  {6f4a1c6d-23b6-4f84-b5c0-b12ad95427f8}, !- Schedule Type Limits Name
  Through: 12/31,                         !- Field 1
  For: AllDays,                           !- Field 2
  Until: 24:00,                           !- Field 3
  21;                                     !- Field 4

OS:Schedule:Compact,
  {6e297deb-afd0-4efd-9409-e86aaf5ec0ff}, !- Handle
  CLGSETP_SCH,                            !- Name
  {6f4a1c6d-23b6-4f84-b5c0-b12ad95427f8}, !- Schedule Type Limits Name
  Through: 12/31,                         !- Field 1
  For: AllDays,                           !- Field 2
  Until: 24:00,                           !- Field 3
  24;                                     !- Field 4

OS:DesignSpecification:OutdoorAir,
  {6c6cbf9d-7e6d-4d8d-8bd3-ea86d5614af9}, !- Handle
  SZ DSOA GuestRoom206_208,               !- Name
  ,                                       !- Outdoor Air Method
  ,                                       !- Outdoor Air Flow per Person {m3/s-person}
  ,                                       !- Outdoor Air Flow per Floor Area {m3/s-m2}
  0.04248,                                !- Outdoor Air Flow Rate {m3/s}
  ,                                       !- Outdoor Air Flow Air Changes per Hour {1/hr}
  ;                                       !- Outdoor Air Flow Rate Fraction Schedule Name

OS:Schedule:Compact,
  {c90a0b01-45e2-4411-9837-4555d58df592}, !- Handle
  ExerciseRoom_Ltg_Sch_Base,              !- Name
  {41e462a1-9781-4883-b4b2-a0c3c8a572f2}, !- Schedule Type Limits Name
  Through: 12/31,                         !- Field 1
  For: AllDays,                           !- Field 2
  Until: 06:00,                           !- Field 3
  0.0,                                    !- Field 4
  Until: 07:00,                           !- Field 5
  0.5,                                    !- Field 6
  Until: 22:00,                           !- Field 7
  1.0,                                    !- Field 8
  Until: 23:00,                           !- Field 9
  0.5,                                    !- Field 10
  Until: 24:00,                           !- Field 11
  0.0;                                    !- Field 12

OS:ScheduleTypeLimits,
  {41e462a1-9781-4883-b4b2-a0c3c8a572f2}, !- Handle
  Fraction,                               !- Name
  0,                                      !- Lower Limit Value {BasedOnField A4}
  1,                                      !- Upper Limit Value {BasedOnField A4}
  CONTINUOUS;                             !- Numeric Type

OS:Surface,
  {d6c85127-7de0-4bfd-a5a5-2fd45b3149e5}, !- Handle
  P_FrontStairsFlr2_10113_0_10073,        !- Name
  Wall,                                   !- Surface Type
  {efad93f6-305c-4551-b59a-f06e4334edc1}, !- Construction Name
  {3e57797b-d34d-4c94-a6d2-020e79914d4b}, !- Space Name
  Surface,                                !- Outside Boundary Condition
  {5c63b08e-c636-49e1-86a3-db7ea9ed365d}, !- Outside Boundary Condition Object
  NoSun,                                  !- Sun Exposure
  NoWind,                                 !- Wind Exposure
  ,                                       !- View Factor to Ground
  ,                                       !- Number of Vertices
  0.0487, 10.1078, 6.096,                 !- X,Y,Z Vertex 1 {m}
  0.0487, 10.1078, 3.3528,                !- X,Y,Z Vertex 2 {m}
  2.4871, 10.1078, 3.3528,                !- X,Y,Z Vertex 3 {m}
  2.4871, 10.1078, 6.096;                 !- X,Y,Z Vertex 4 {m}

OS:Construction,
  {efad93f6-305c-4551-b59a-f06e4334edc1}, !- Handle
  int-walls,                              !- Name
  {da7d0254-db40-4eda-8ac4-307fe2759bca}, !- Surface Rendering Name
  {6f424d7f-3b27-4d5a-9901-5aaf4e5801a8}, !- Layer 1
  {6f424d7f-3b27-4d5a-9901-5aaf4e5801a8}; !- Layer 2

OS:ThermalZone,
  {79af6f70-ec17-4c6b-b374-bb1fccd9d6b6}, !- Handle
  FrontStairsFlr2 Thermal Zone,           !- Name
  1,                                      !- Multiplier
  ,                                       !- Ceiling Height {m}
  ,                                       !- Volume {m3}
  ,                                       !- Floor Area {m2}
  ,                                       !- Zone Inside Convection Algorithm
  ,                                       !- Zone Outside Convection Algorithm
  ,                                       !- Zone Conditioning Equipment List Name
  {b3641039-3387-4996-a4fa-4e025649652e}, !- Zone Air Inlet Port List
  {e766adb0-bac0-4f32-be05-e5040caaf3cb}, !- Zone Air Exhaust Port List
  {b486aad5-2184-4ac2-8ec9-05a6d1378466}, !- Zone Air Node Name
  ,                                       !- Zone Return Air Node Name
  ,                                       !- Primary Daylighting Control Name
  ,                                       !- Fraction of Zone Controlled by Primary Daylighting Control
  ,                                       !- Secondary Daylighting Control Name
  ,                                       !- Fraction of Zone Controlled by Secondary Daylighting Control
  ,                                       !- Illuminance Map Name
  {50de73b5-b008-4317-aa9c-0caa92acce44}, !- Group Rendering Name
  {8f7380b9-9289-4acf-9c84-15487234d303}, !- Thermostat Name
  No;                                     !- Use Ideal Air Loads

OS:Node,
  {c3502c5b-69e7-404a-9deb-ba071dc6e344}, !- Handle
  {141db4a7-22c4-4b43-86d1-92a2462b54ed}, !- Name
  {b486aad5-2184-4ac2-8ec9-05a6d1378466}, !- Inlet Port
  ;                                       !- Outlet Port

OS:Connection,
  {b486aad5-2184-4ac2-8ec9-05a6d1378466}, !- Handle
  {5929abe4-1379-48b0-9cca-8579212ab90a}, !- Name
  {79af6f70-ec17-4c6b-b374-bb1fccd9d6b6}, !- Source Object
  11,                                     !- Outlet Port
  {c3502c5b-69e7-404a-9deb-ba071dc6e344}, !- Target Object
  2;                                      !- Inlet Port

OS:PortList,
  {b3641039-3387-4996-a4fa-4e025649652e}, !- Handle
  {1ac0bfa0-cccd-4c24-b3e2-90d024ad719d}, !- Name
  {79af6f70-ec17-4c6b-b374-bb1fccd9d6b6}; !- HVAC Component

OS:PortList,
  {e766adb0-bac0-4f32-be05-e5040caaf3cb}, !- Handle
  {aab2ecbd-a983-4470-b469-40a43237fc8d}, !- Name
  {79af6f70-ec17-4c6b-b374-bb1fccd9d6b6}; !- HVAC Component

OS:Sizing:Zone,
  {cd5fc65d-a7fe-45fd-b1bf-4687bce43f7f}, !- Handle
  {79af6f70-ec17-4c6b-b374-bb1fccd9d6b6}, !- Zone or ZoneList Name
  14,                                     !- Zone Cooling Design Supply Air Temperature {C}
  40,                                     !- Zone Heating Design Supply Air Temperature {C}
  0.0085,                                 !- Zone Cooling Design Supply Air Humidity Ratio {kg-H2O/kg-air}
  0.008,                                  !- Zone Heating Design Supply Air Humidity Ratio {kg-H2O/kg-air}
  ,                                       !- Zone Heating Sizing Factor
  ,                                       !- Zone Cooling Sizing Factor
  DesignDay,                              !- Cooling Design Air Flow Method
  ,                                       !- Cooling Design Air Flow Rate {m3/s}
  ,                                       !- Cooling Minimum Air Flow per Zone Floor Area {m3/s-m2}
  ,                                       !- Cooling Minimum Air Flow {m3/s}
  ,                                       !- Cooling Minimum Air Flow Fraction
  DesignDay,                              !- Heating Design Air Flow Method
  ,                                       !- Heating Design Air Flow Rate {m3/s}
  ,                                       !- Heating Maximum Air Flow per Zone Floor Area {m3/s-m2}
  ,                                       !- Heating Maximum Air Flow {m3/s}
  ,                                       !- Heating Maximum Air Flow Fraction
  ,                                       !- Design Zone Air Distribution Effectiveness in Cooling Mode
  ;                                       !- Design Zone Air Distribution Effectiveness in Heating Mode

OS:ZoneHVAC:EquipmentList,
  {747d1831-4db0-4f6f-a16f-136f22d913ef}, !- Handle
  {fd908aec-30c5-4e2a-8a61-8b3470d78423}, !- Name
  {79af6f70-ec17-4c6b-b374-bb1fccd9d6b6}; !- Thermal Zone

OS:Space,
  {3e57797b-d34d-4c94-a6d2-020e79914d4b}, !- Handle
  FrontStairsFlr2,                        !- Name
  ,                                       !- Space Type Name
  ,                                       !- Default Construction Set Name
  ,                                       !- Default Schedule Set Name
  0,                                      !- Direction of Relative North {deg}
  0,                                      !- X Origin {m}
  0,                                      !- Y Origin {m}
  0,                                      !- Z Origin {m}
  ,                                       !- Building Story Name
  {79af6f70-ec17-4c6b-b374-bb1fccd9d6b6}, !- Thermal Zone Name
  Yes;                                    !- Part of Total Floor Area

OS:ThermostatSetpoint:DualSetpoint,
  {8f7380b9-9289-4acf-9c84-15487234d303}, !- Handle
  {e1cdbaba-f662-447f-a42f-6e6db4c8ac4c}, !- Name
  {363843d3-b7b0-44d2-a33a-0011b44de006}, !- Heating Setpoint Temperature Schedule Name
  {86c5f2eb-d4ed-46f8-9fa3-8d4530502427}; !- Cooling Setpoint Temperature Schedule Name

OS:Curve:Quadratic,
  {31f6658f-5b0e-4f82-b0dc-a1fbce08647f}, !- Handle
  PTACHPACEIRFFF,                         !- Name
  1.1552,                                 !- Coefficient1 Constant
  -0.1808,                                !- Coefficient2 x
  0.0256,                                 !- Coefficient3 x**2
  0.5,                                    !- Minimum Value of x {BasedOnField A2}
  1.5;                                    !- Maximum Value of x {BasedOnField A2}

OS:Surface,
  {2a7a1d3e-20f8-42e9-8410-4f7f346c0735}, !- Handle
  AtticFloor_GR415_418_1_0_0,             !- Name
  Floor,                                  !- Surface Type
  {f91de34e-b13d-48bd-a37f-f67e8594ca51}, !- Construction Name
  {5c15b500-bc79-46ba-9b40-e0b151f262e9}, !- Space Name
  Surface,                                !- Outside Boundary Condition
  {ffb1dfad-352d-4503-81e0-11cd5d3290ae}, !- Outside Boundary Condition Object
  NoSun,                                  !- Sun Exposure
  NoWind,                                 !- Wind Exposure
  ,                                       !- View Factor to Ground
  ,                                       !- Number of Vertices
  62.418006, -3.343842, 11.5824,          !- X,Y,Z Vertex 1 {m}
  62.418006, -11.573442, 11.5824,         !- X,Y,Z Vertex 2 {m}
  46.568406, -11.573442, 11.5824,         !- X,Y,Z Vertex 3 {m}
  46.568406, -3.343842, 11.5824;          !- X,Y,Z Vertex 4 {m}

OS:Construction,
  {f91de34e-b13d-48bd-a37f-f67e8594ca51}, !- Handle
  Attic Res Floor,                        !- Name
  {be1c3836-76f0-4b37-9133-63c43b86b21d}, !- Surface Rendering Name
  {6f424d7f-3b27-4d5a-9901-5aaf4e5801a8}, !- Layer 1
  {c473929e-29fb-421b-9292-5510da7f0871}, !- Layer 2
  {6f424d7f-3b27-4d5a-9901-5aaf4e5801a8}; !- Layer 3

OS:Material,
  {c473929e-29fb-421b-9292-5510da7f0871}, !- Handle
  AtticFloor Res Insulation,              !- Name
  MediumRough,                            !- Roughness
  0.0666101193201832,                     !- Thickness {m}
  0.049,                                  !- Conductivity {W/m-K}
  265,                                    !- Density {kg/m3}
  836.8,                                  !- Specific Heat {J/kg-K}
  0.9,                                    !- Thermal Absorptance
  0.7,                                    !- Solar Absorptance
  0.7;                                    !- Visible Absorptance

OS:ThermalZone,
  {49d069ea-1fbb-4211-846c-a681daed4180}, !- Handle
  Attic Thermal Zone,                     !- Name
  1,                                      !- Multiplier
  ,                                       !- Ceiling Height {m}
  ,                                       !- Volume {m3}
  ,                                       !- Floor Area {m2}
  ,                                       !- Zone Inside Convection Algorithm
  ,                                       !- Zone Outside Convection Algorithm
  ,                                       !- Zone Conditioning Equipment List Name
  {657aa936-bda4-4365-9132-367f947727d4}, !- Zone Air Inlet Port List
  {a48a02e1-575f-42ff-b0f4-2dc51244c7bc}, !- Zone Air Exhaust Port List
  {0f3256b6-5400-4e3c-a5b0-3f7fbe153be1}, !- Zone Air Node Name
  ,                                       !- Zone Return Air Node Name
  ,                                       !- Primary Daylighting Control Name
  ,                                       !- Fraction of Zone Controlled by Primary Daylighting Control
  ,                                       !- Secondary Daylighting Control Name
  ,                                       !- Fraction of Zone Controlled by Secondary Daylighting Control
  ,                                       !- Illuminance Map Name
  {43d25701-9cd0-45a6-8198-08e6fc6eb30b}, !- Group Rendering Name
  ,                                       !- Thermostat Name
  No;                                     !- Use Ideal Air Loads

OS:Node,
  {da8b27c7-b777-416b-8a89-b51f64154cdd}, !- Handle
  {6da94a07-a355-430c-b493-e3bee7d578fa}, !- Name
  {0f3256b6-5400-4e3c-a5b0-3f7fbe153be1}, !- Inlet Port
  ;                                       !- Outlet Port

OS:Connection,