
OS:Version,
  {476548ec-d8a3-40ff-8e79-fb70c7c71d11}, !- Handle
  1.3.0;                                  !- Version Identifier

OS:Site,
  {f9ddda8a-7be0-47bc-875c-483746952320}, !- Handle
  USA CA-SAN FRANCISCO,                   !- Name
  37.62,                                  !- Latitude {deg}
  -122.37,                                !- Longitude {deg}
  -8,                                     !- Time Zone {hr}
  5,                                      !- Elevation {m}
  City;                                   !- Terrain

OS:SimulationControl,
  {4ca6b2dd-2a3a-43b3-a05d-2a63c7274d0f}, !- Handle
  Yes,                                    !- Do Zone Sizing Calculation
  Yes,                                    !- Do System Sizing Calculation
  Yes,                                    !- Do Plant Sizing Calculation
  No,                                     !- Run Simulation for Sizing Periods
  Yes,                                    !- Run Simulation for Weather File Run Periods
  0.04,                                   !- Loads Convergence Tolerance Value
  0.2,                                    !- Temperature Convergence Tolerance Value {deltaC}
  FullInteriorAndExterior,                !- Solar Distribution
  25,                                     !- Maximum Number of Warmup Days
  6;                                      !- Minimum Number of Warmup Days

OS:Surface,
  {f2a5f8a7-a27b-47c8-a774-d7c7be045ae4}, !- Handle
  P_FrontStorageFlr1_10091_0_10058,       !- Name
  Wall,                                   !- Surface Type
  {bc3f11de-fb6c-4a8e-83c4-9e4177ded91d}, !- Construction Name
  {d7fd3884-3d01-4c41-934b-c8e9dd0ad426}, !- Space Name
  Surface,                                !- Outside Boundary Condition
  {ca23c82e-4531-4f34-b555-91b4273a0a67}, !- Outside Boundary Condition Object
  NoSun,                                  !- Sun Exposure
  NoWind,                                 !- Wind Exposure
  ,                                       !- View Factor to Ground
  ,                                       !- Number of Vertices
  2.4871, 18.3374, 3.3528,                !- X,Y,Z Vertex 1 {m}
  2.4871, 18.3374, 0,                     !- X,Y,Z Vertex 2 {m}
  2.4871, 10.1078, 0,                     !- X,Y,Z Vertex 3 {m}
  2.4871, 10.1078, 3.3528;                !- X,Y,Z Vertex 4 {m}

OS:Construction,
  {bc3f11de-fb6c-4a8e-83c4-9e4177ded91d}, !- Handle
  int-walls,                              !- Name
  {c894bbd8-f2f6-41c4-a00c-b8b7bc38c5e3}, !- Surface Rendering Name
  {83ef9db6-d720-4a2b-b29c-1fa7986fd326}, !- Layer 1
  {83ef9db6-d720-4a2b-b29c-1fa7986fd326}; !- Layer 2

OS:Material,
  {83ef9db6-d720-4a2b-b29c-1fa7986fd326}, !- Handle
  1/2IN Gypsum,                           !- Name
  Smooth,                                 !- Roughness
  0.0127,                                 !- Thickness {m}
  0.16,                                   !- Conductivity {W/m-K}
  784.9,                                  !- Density {kg/m3}
  830,                                    !- Specific Heat {J/kg-K}
  0.9,                                    !- Thermal Absorptance
  0.92,                                   !- Solar Absorptance
  0.92;                                   !- Visible Absorptance

OS:ThermalZone,
  {ac4429fe-d4f6-48e1-9cf3-9bc4341b6ca7}, !- Handle
  FrontStorageFlr1 Thermal Zone,          !- Name
  1,                                      !- Multiplier
  ,                                       !- Ceiling Height {m}
  ,                                       !- Volume {m3}
  ,                                       !- Floor Area {m2}
  ,                                       !- Zone Inside Convection Algorithm
  ,                                       !- Zone Outside Convection Algorithm
  ,                                       !- Zone Conditioning Equipment List Name
  {7c157e0b-b555-494b-a026-3650326210e6}, !- Zone Air Inlet Port List
  {4e7e1973-f869-4cdd-af14-22d2005bfb41}, !- Zone Air Exhaust Port List
  {f00f8549-08f0-4856-b1fc-9fc357fdef85}, !- Zone Air Node Name
  ,                                       !- Zone Return Air Node Name
  ,                                       !- Primary Daylighting Control Name
  ,                                       !- Fraction of Zone Controlled by Primary Daylighting Control
  ,                                       !- Secondary Daylighting Control Name
  ,                                       !- Fraction of Zone Controlled by Secondary Daylighting Control
  ,                                       !- Illuminance Map Name
  {37754a16-f0f0-41f4-85f0-8f534e61aaf8}, !- Group Rendering Name
  {46812cc7-ff15-497f-a93c-d5f9770592b3}, !- Thermostat Name
  No;                                     !- Use Ideal Air Loads

OS:Node,
  {0f8bb923-5f5a-449e-8ab9-747eed4caad3}, !- Handle
  {1167f8a7-09ad-464e-80ef-e33e0e977fd7}, !- Name
  {f00f8549-08f0-4856-b1fc-9fc357fdef85}, !- Inlet Port
  ;                                       !- Outlet Port

OS:Connection,
  {f00f8549-08f0-4856-b1fc-9fc357fdef85}, !- Handle
  {f7523ac0-023f-43f4-abef-78dbd6d7bbae}, !- Name
  {ac4429fe-d4f6-48e1-9cf3-9bc4341b6ca7}, !- Source Object
  11,                                     !- Outlet Port
  {0f8bb923-5f5a-449e-8ab9-747eed4caad3}, !- Target Object
  2;                                      !- Inlet Port

OS:PortList,
  {7c157e0b-b555-494b-a026-3650326210e6}, !- Handle
  {ecc98935-2ccf-4e4e-887b-37fb0c2ccc52}, !- Name
  {ac4429fe-d4f6-48e1-9cf3-9bc4341b6ca7}; !- HVAC Component

OS:PortList,
  {4e7e1973-f869-4cdd-af14-22d2005bfb41}, !- Handle
  {26fe0a58-d40f-418a-94e7-a41eb39eee12}, !- Name
  {ac4429fe-d4f6-48e1-9cf3-9bc4341b6ca7}; !- HVAC Component

OS:Sizing:Zone,
  {eb5e67b8-56a5-4199-9b42-aa56d4eaca3b}, !- Handle
  {ac4429fe-d4f6-48e1-9cf3-9bc4341b6ca7}, !- Zone or ZoneList Name
  14,                                     !- Zone Cooling Design Supply Air Temperature {C}
  40,                                     !- Zone Heating Design Supply Air Temperature {C}
  0.0085,                                 !- Zone Cooling Design Supply Air Humidity Ratio {kg-H2O/kg-air}
  0.008,                                  !- Zone Heating Design Supply Air Humidity Ratio {kg-H2O/kg-air}
  ,                                       !- Zone Heating Sizing Factor
  ,                                       !- Zone Cooling Sizing Factor
  DesignDay,                              !- Cooling Design Air Flow Method
  ,                                       !- Cooling Design Air Flow Rate {m3/s}
  ,                                       !- Cooling Minimum Air Flow per Zone Floor Area {m3/s-m2}
  ,                                       !- Cooling Minimum Air Flow {m3/s}
  ,                                       !- Cooling Minimum Air Flow Fraction
  DesignDay,                              !- Heating Design Air Flow Method
  ,                                       !- Heating Design Air Flow Rate {m3/s}
  ,                                       !- Heating Maximum Air Flow per Zone Floor Area {m3/s-m2}
  ,                                       !- Heating Maximum Air Flow {m3/s}
  ,                                       !- Heating Maximum Air Flow Fraction
  ,                                       !- Design Zone Air Distribution Effectiveness in Cooling Mode
  ;                                       !- Design Zone Air Distribution Effectiveness in Heating Mode

OS:ZoneHVAC:EquipmentList,
  {ad1f528d-74ff-44ec-bba9-80b19f7bb278}, !- Handle
  {113a3898-2959-40c4-8b54-6633bea0a1f5}, !- Name
  {ac4429fe-d4f6-48e1-9cf3-9bc4341b6ca7}; !- Thermal Zone

OS:Space,
  {d7fd3884-3d01-4c41-934b-c8e9dd0ad426}, !- Handle
  FrontStorageFlr1,                       !- Name
  ,                                       !- Space Type Name
  ,                                       !- Default Construction Set Name
  ,                                       !- Default Schedule Set Name
  0,                                      !- Direction of Relative North {deg}
  0,                                      !- X Origin {m}
  0,                                      !- Y Origin {m}
  0,                                      !- Z Origin {m}
  ,                                       !- Building Story Name
  {ac4429fe-d4f6-48e1-9cf3-9bc4341b6ca7}, !- Thermal Zone Name
  Yes;                                    !- Part of Total Floor Area

OS:ThermostatSetpoint:DualSetpoint,
  {46812cc7-ff15-497f-a93c-d5f9770592b3}, !- Handle
  {efa66ca1-9e41-45f7-94a5-8d763f2f2dfb}, !- Name
  {577e4ab9-7f4d-4284-9689-504bc67703ca}, !- Heating Setpoint Temperature Schedule Name
  {cc7918e2-f61e-4bf5-bfdd-f44d2b2e7856}; !- Cooling Setpoint Temperature Schedule Name

OS:Schedule:Compact,
  {577e4ab9-7f4d-4284-9689-504bc67703ca}, !- Handle
  UnitHeater_HtgSP_Sch,                   !- Name
  {137e04b6-51c6-45a7-b46a-dc3e6f047825}, !- Schedule Type Limits Name
  Through: 12/31,                         !- Field 1
  For: AllDays,                           !- Field 2
  Until: 24:00,                           !- Field 3
  15.6;                                   !- Field 4

OS:ScheduleTypeLimits,
  {137e04b6-51c6-45a7-b46a-dc3e6f047825}, !- Handle
  Temperature,                            !- Name
  -60,                                    !- Lower Limit Value {BasedOnField A4}
  200,                                    !- Upper Limit Value {BasedOnField A4}
  CONTINUOUS,                             !- Numeric Type
  Temperature;                            !- Unit Type

OS:Schedule:Compact,
  {cc7918e2-f61e-4bf5-bfdd-f44d2b2e7856}, !- Handle
  UnitHeater_ClgSP_Sch,                   !- Name
  {137e04b6-51c6-45a7-b46a-dc3e6f047825}, !- Schedule Type Limits Name
  Through: 12/31,                         !- Field 1
  For: AllDays,                           !- Field 2
  Until: 24:00,                           !- Field 3
  40;                                     !- Field 4

OS:Schedule:Compact,
  {ab301fe7-1632-44d8-b08b-1ada78062103}, !- Handle
  WORK_EFF_SCH,                           !- Name
  {f09bacc9-77af-4c84-812b-6d2163fc2edf}, !- Schedule Type Limits Name
  Through: 12/31,                         !- Field 1
  For: AllDays,                           !- Field 2
  Until: 24:00,                           !- Field 3
  0.0;                                    !- Field 4

OS:ScheduleTypeLimits,
  {f09bacc9-77af-4c84-812b-6d2163fc2edf}, !- Handle
  Fraction,                               !- Name
  0,                                      !- Lower Limit Value {BasedOnField A4}
  1,                                      !- Upper Limit Value {BasedOnField A4}
  CONTINUOUS;                             !- Numeric Type

OS:Surface,
  {682b0138-5aee-40a2-adee-a2642b0b3a3e}, !- Handle
  P_CorridorFlr3_13_0_0,                  !- Name
  Wall,                                   !- Surface Type
  {bc3f11de-fb6c-4a8e-83c4-9e4177ded91d}, !- Construction Name
  {be98726e-deca-4330-809d-0baa157e24e3}, !- Space Name
  Surface,                                !- Outside Boundary Condition
  {1e277f57-a59a-42d3-819d-0faa6dac2d4f}, !- Outside Boundary Condition Object
  NoSun,                                  !- Sun Exposure
  NoWind,                                 !- Wind Exposure
  ,                                       !- View Factor to Ground
  ,                                       !- Number of Vertices
  4.0111, 10.1078, 8.8392,                !- X,Y,Z Vertex 1 {m}
  4.0111, 10.1078, 6.096,                 !- X,Y,Z Vertex 2 {m}
  2.4871, 10.1078, 6.096,                 !- X,Y,Z Vertex 3 {m}
  2.4871, 10.1078, 8.8392;                !- X,Y,Z Vertex 4 {m}

OS:ThermalZone,
  {a3a565ed-3214-4038-803f-daf99cbd7d12}, !- Handle
  CorridorFlr3 Thermal Zone,              !- Name
  1,                                      !- Multiplier
  ,                                       !- Ceiling Height {m}
  ,                                       !- Volume {m3}
  ,                                       !- Floor Area {m2}
  ,                                       !- Zone Inside Convection Algorithm
  ,                                       !- Zone Outside Convection Algorithm
  ,                                       !- Zone Conditioning Equipment List Name
  {752220f8-8e02-4bcc-81c7-e7e62103e3e3}, !- Zone Air Inlet Port List
  {4105ad7c-b045-4a5c-ade2-f3d3df40c158}, !- Zone Air Exhaust Port List
  {6abb8e92-481b-41a3-8145-657c8322c718}, !- Zone Air Node Name
  ,                                       !- Zone Return Air Node Name
  ,                                       !- Primary Daylighting Control Name
  ,                                       !- Fraction of Zone Controlled by Primary Daylighting Control
  ,                                       !- Secondary Daylighting Control Name
  ,                                       !- Fraction of Zone Controlled by Secondary Daylighting Control
  ,                                       !- Illuminance Map Name
  {22d09486-f34a-4734-94c7-485ccf1c9ece}, !- Group Rendering Name
  {605f53d9-24af-4a99-8c6b-9aff1025774a}, !- Thermostat Name
  No;                                     !- Use Ideal Air Loads

OS:Node,
  {4ed195b5-4823-4c92-a8d2-c7270373cb60}, !- Handle
  {6aace0ad-2301-435a-9ab6-27ea54fc9ef7}, !- Name
  {6abb8e92-481b-41a3-8145-657c8322c718}, !- Inlet Port
  ;                                       !- Outlet Port

OS:Connection,
  {6abb8e92-481b-41a3-8145-657c8322c718}, !- Handle
  {981a10d2-7913-42bb-ad71-475dab2ce052}, !- Name
  {a3a565ed-3214-4038-803f-daf99cbd7d12}, !- Source Object
  11,                                     !- Outlet Port
  {4ed195b5-4823-4c92-a8d2-c7270373cb60}, !- Target Object
  2;                                      !- Inlet Port

OS:PortList,
  {752220f8-8e02-4bcc-81c7-e7e62103e3e3}, !- Handle
  {8b2bac86-4b28-49b2-9eae-c5a122e068b5}, !- Name
  {a3a565ed-3214-4038-803f-daf99cbd7d12}; !- HVAC Component

OS:PortList,
  {4105ad7c-b045-4a5c-ade2-f3d3df40c158}, !- Handle
  {98afa8b3-9c48-4eca-a6be-12f4a4a43dc6}, !- Name
  {a3a565ed-3214-4038-803f-daf99cbd7d12}; !- HVAC Component

OS:Sizing:Zone,
  {b2d9a466-6412-4bfb-9ab4-073512902f56}, !- Handle
  {a3a565ed-3214-4038-803f-daf99cbd7d12}, !- Zone or ZoneList Name
  14,                                     !- Zone Cooling Design Supply Air Temperature {C}
  40,                                     !- Zone Heating Design Supply Air Temperature {C}
  0.0085,                                 !- Zone Cooling Design Supply Air Humidity Ratio {kg-H2O/kg-air}
  0.008,                                  !- Zone Heating Design Supply Air Humidity Ratio {kg-H2O/kg-air}
  ,                                       !- Zone Heating Sizing Factor
  ,                                       !- Zone Cooling Sizing Factor
  DesignDay,                              !- Cooling Design Air Flow Method
  ,                                       !- Cooling Design Air Flow Rate {m3/s}
  ,                                       !- Cooling Minimum Air Flow per Zone Floor Area {m3/s-m2}
  ,                                       !- Cooling Minimum Air Flow {m3/s}
  ,                                       !- Cooling Minimum Air Flow Fraction
  DesignDay,                              !- Heating Design Air Flow Method
  ,                                       !- Heating Design Air Flow Rate {m3/s}
  ,                                       !- Heating Maximum Air Flow per Zone Floor Area {m3/s-m2}
  ,                                       !- Heating Maximum Air Flow {m3/s}
  ,                                       !- Heating Maximum Air Flow Fraction
  ,                                       !- Design Zone Air Distribution Effectiveness in Cooling Mode
  ;                                       !- Design Zone Air Distribution Effectiveness in Heating Mode

OS:ZoneHVAC:EquipmentList,
  {b5cdc2c8-bf5d-4269-bce3-2dd4591d33c8}, !- Handle
  {bdf4a8aa-f33a-4999-b7f6-b11c3cfc7a2a}, !- Name
  {a3a565ed-3214-4038-803f-daf99cbd7d12}; !- Thermal Zone

OS:Space,
  {be98726e-deca-4330-809d-0baa157e24e3}, !- Handle
  CorridorFlr3,                           !- Name
  ,                                       !- Space Type Name
  ,                                       !- Default Construction Set Name
  ,                                       !- Default Schedule Set Name
  0,                                      !- Direction of Relative North {deg}
  0,                                      !- X Origin {m}
  0,                                      !- Y Origin {m}
  0,                                      !- Z Origin {m}
  ,                                       !- Building Story Name
  {a3a565ed-3214-4038-803f-daf99cbd7d12}, !- Thermal Zone Name
  Yes;                                    !- Part of Total Floor Area

OS:ThermostatSetpoint:DualSetpoint,
  {605f53d9-24af-4a99-8c6b-9aff1025774a}, !- Handle
  {81b5c439-7f08-418c-b9f3-065807e89b68}, !- Name
  {9f34bc7c-2b3b-4063-888f-2ec42e43d623}, !- Heating Setpoint Temperature Schedule Name
  {8186417d-5f72-4228-a468-67f2e8d26f91}; !- Cooling Setpoint Temperature Schedule Name

OS:Schedule:Compact,
  {9f34bc7c-2b3b-4063-888f-2ec42e43d623}, !- Handle
  HTGSETP_SCH,                            !- Name
  {137e04b6-51c6-45a7-b46a-dc3e6f047825}, !- Schedule Type Limits Name
  Through: 12/31,                         !- Field 1
  For: AllDays,                           !- Field 2
  Until: 24:00,                           !- Field 3
  21;                                     !- Field 4

OS:Schedule:Compact,
  {8186417d-5f72-4228-a468-67f2e8d26f91}, !- Handle
  CLGSETP_SCH,                            !- Name
  {137e04b6-51c6-45a7-b46a-dc3e6f047825}, !- Schedule Type Limits Name
  Through: 12/31,                         !- Field 1
  For: AllDays,                           !- Field 2
  Until: 24:00,                           !- Field 3
  24;                                     !- Field 4

OS:Surface,
  {0898f8e2-0305-4d2c-aa79-b692c4136d5b}, !- Handle
  P_GuestRoom104_10002_0_10001,           !- Name
  Wall,                                   !- Surface Type
  {bc3f11de-fb6c-4a8e-83c4-9e4177ded91d}, !- Construction Name
  {c862e6a3-2630-4e56-82ee-d0f05f77cdd8}, !- Space Name
  Surface,                                !- Outside Boundary Condition
  {2d919b57-429f-4dd4-b927-d048e28c0ea1}, !- Outside Boundary Condition Object
  NoSun,                                  !- Sun Exposure
  NoWind,                                 !- Wind Exposure
  ,                                       !- View Factor to Ground
  ,                                       !- Number of Vertices
  52.4743, 10.1078, 3.3528,               !- X,Y,Z Vertex 1 {m}
  52.4743, 10.1078, 0,                    !- X,Y,Z Vertex 2 {m}
  52.4743, 18.3374, 0,                    !- X,Y,Z Vertex 3 {m}
  52.4743, 18.3374, 3.3528;               !- X,Y,Z Vertex 4 {m}

OS:ThermalZone,
  {012da21c-8217-4efb-81a1-563ca47e98cf}, !- Handle
  GuestRoom104 Thermal Zone,              !- Name
  1,                                      !- Multiplier
  ,                                       !- Ceiling Height {m}
  ,                                       !- Volume {m3}
  ,                                       !- Floor Area {m2}
  ,                                       !- Zone Inside Convection Algorithm
  ,                                       !- Zone Outside Convection Algorithm
  ,                                       !- Zone Conditioning Equipment List Name
  {405940a2-b49a-402c-8db9-8b9d538a441e}, !- Zone Air Inlet Port List
  {3ae0d235-68dc-4e7c-bb69-4f90760b0bcd}, !- Zone Air Exhaust Port List
  {1cecc310-5d10-47dd-9712-8b2a5d6cda55}, !- Zone Air Node Name
  ,                                       !- Zone Return Air Node Name
  ,                                       !- Primary Daylighting Control Name
  ,                                       !- Fraction of Zone Controlled by Primary Daylighting Control
  ,                                       !- Secondary Daylighting Control Name
  ,                                       !- Fraction of Zone Controlled by Secondary Daylighting Control
  ,                                       !- Illuminance Map Name
  {766f3011-6180-4975-b6a0-58db919623f2}, !- Group Rendering Name
  {22ed51a5-84c4-41b5-b3fe-215009d62fb1}, !- Thermostat Name
  No;                                     !- Use Ideal Air Loads

OS:Node,
  {cabcd4b0-5764-402c-bd84-9f227dab66c3}, !- Handle
  {925405cd-ad5c-418b-9db6-81d6d5e4e9ea}, !- Name
  {1cecc310-5d10-47dd-9712-8b2a5d6cda55}, !- Inlet Port
  ;                                       !- Outlet Port

OS:Connection,
  {1cecc310-5d10-47dd-9712-8b2a5d6cda55}, !- Handle
  {404551f7-2edf-4844-aeed-6dd44b570bdb}, !- Name
  {012da21c-8217-4efb-81a1-563ca47e98cf}, !- Source Object
  11,                                     !- Outlet Port
  {cabcd4b0-5764-402c-bd84-9f227dab66c3}, !- Target Object
  2;                                      !- Inlet Port

OS:PortList,
  {405940a2-b49a-402c-8db9-8b9d538a441e}, !- Handle
  {8b9e2fec-7dfb-4ff1-99d8-7df7b73f6a2d}, !- Name
  {012da21c-8217-4efb-81a1-563ca47e98cf}; !- HVAC Component

OS:PortList,
  {3ae0d235-68dc-4e7c-bb69-4f90760b0bcd}, !- Handle
  {017c772d-868f-4164-a0e1-aaacd7fdd686}, !- Name
  {012da21c-8217-4efb-81a1-563ca47e98cf}; !- HVAC Component

OS:Sizing:Zone,
  {52e93a6b-bcec-4dfb-976e-fdb215c9e9dd}, !- Handle
  {012da21c-8217-4efb-81a1-563ca47e98cf}, !- Zone or ZoneList Name
  14,                                     !- Zone Cooling Design Supply Air Temperature {C}
  40,                                     !- Zone Heating Design Supply Air Temperature {C}
  0.0085,                                 !- Zone Cooling Design Supply Air Humidity Ratio {kg-H2O/kg-air}
  0.008,                                  !- Zone Heating Design Supply Air Humidity Ratio {kg-H2O/kg-air}
  ,                                       !- Zone Heating Sizing Factor
  ,                                       !- Zone Cooling Sizing Factor
  DesignDay,                              !- Cooling Design Air Flow Method
  ,                                       !- Cooling Design Air Flow Rate {m3/s}
  ,                                       !- Cooling Minimum Air Flow per Zone Floor Area {m3/s-m2}
  ,                                       !- Cooling Minimum Air Flow {m3/s}
  ,                                       !- Cooling Minimum Air Flow Fraction
  DesignDay,                              !- Heating Design Air Flow Method
  ,                                       !- Heating Design Air Flow Rate {m3/s}
  ,                                       !- Heating Maximum Air Flow per Zone Floor Area {m3/s-m2}
  ,                                       !- Heating Maximum Air Flow {m3/s}
  ,                                       !- Heating Maximum Air Flow Fraction
  ,                                       !- Design Zone Air Distribution Effectiveness in Cooling Mode
  ;                                       !- Design Zone Air Distribution Effectiveness in Heating Mode

OS:ZoneHVAC:EquipmentList,
  {dd572276-fd0a-4842-9911-59d37e219f65}, !- Handle
  {1b0a84f5-a213-4dc8-a108-472556ee3d54}, !- Name
  {012da21c-8217-4efb-81a1-563ca47e98cf}; !- Thermal Zone

OS:Space,
  {c862e6a3-2630-4e56-82ee-d0f05f77cdd8}, !- Handle
  GuestRoom104,                           !- Name
  ,                                       !- Space Type Name
  ,                                       !- Default Construction Set Name
  ,                                       !- Default Schedule Set Name
  0,                                      !- Direction of Relative North {deg}
  0,                                      !- X Origin {m}
  0,                                      !- Y Origin {m}
  0,                                      !- Z Origin {m}
  ,                                       !- Building Story Name
  {012da21c-8217-4efb-81a1-563ca47e98cf}, !- Thermal Zone Name
  Yes;                                    !- Part of Total Floor Area

OS:ThermostatSetpoint:DualSetpoint,
  {22ed51a5-84c4-41b5-b3fe-215009d62fb1}, !- Handle
  {9e6bc73e-f457-4c71-b0df-9fd299877a4b}, !- Name
  {9f34bc7c-2b3b-4063-888f-2ec42e43d623}, !- Heating Setpoint Temperature Schedule Name
  {8186417d-5f72-4228-a468-67f2e8d26f91}; !- Cooling Setpoint Temperature Schedule Name

OS:SpaceInfiltration:DesignFlowRate,
  {e5e7ee4c-7feb-4b53-82a3-70b71bb21cd3}, !- Handle
  RestroomFlr1_Infiltration,              !- Name
  {e3fa0126-4578-432e-b037-386d2979d41c}, !- Space or SpaceType Name
  {fcce6876-1e34-4926-89f8-c10a91147693}, !- Schedule Name
  Flow/ExteriorArea,                      !- Design Flow Rate Calculation Method
  ,                                       !- Design Flow Rate {m3/s}
  ,                                       !- Flow per Space Floor Area {m3/s-m2}
  0.001133,                               !- Flow per Exterior Surface Area {m3/s-m2}
  ,                                       !- Air Changes per Hour {1/hr}
  1,                                      !- Constant Term Coefficient
  0,                                      !- Temperature Term Coefficient
  0,                                      !- Velocity Term Coefficient
  0;                                      !- Velocity Squared Term Coefficient

OS:ThermalZone,
  {3e47e341-55c8-4d00-9f2c-1b547f6e9127}, !- Handle
  RestroomFlr1 Thermal Zone,              !- Name
  1,                                      !- Multiplier
  ,                                       !- Ceiling Height {m}
  ,                                       !- Volume {m3}
  ,                                       !- Floor Area {m2}
  ,                                       !- Zone Inside Convection Algorithm
  ,                                       !- Zone Outside Convection Algorithm
  ,                                       !- Zone Conditioning Equipment List Name
  {62dbeb2f-7d9e-4b19-95e0-34f8edd63fc7}, !- Zone Air Inlet Port List
  {a4158b9a-b3e6-4868-9f6a-154e44ceca75}, !- Zone Air Exhaust Port List
  {dda37066-006e-4758-a11e-0b0b59ec9725}, !- Zone Air Node Name
  ,                                       !- Zone Return Air Node Name
  ,                                       !- Primary Daylighting Control Name
  ,                                       !- Fraction of Zone Controlled by Primary Daylighting Control
  ,                                       !- Secondary Daylighting Control Name
  ,                                       !- Fraction of Zone Controlled by Secondary Daylighting Control
  ,                                       !- Illuminance Map Name
  {29c99cd5-0264-4d0c-a574-c866f270ca97}, !- Group Rendering Name
  {7d1c43dc-a4d3-4acf-a81f-eeafdc18ba38}, !- Thermostat Name
  No;                                     !- Use Ideal Air Loads

OS:Node,
  {581b1dc8-fd46-4440-aa7c-d44f0fdf474d}, !- Handle
  {269ea300-a120-4628-ab95-cad0d6d08639}, !- Name
  {dda37066-006e-4758-a11e-0b0b59ec9725}, !- Inlet Port
  ;                                       !- Outlet Port

OS:Connection,
  {dda37066-006e-4758-a11e-0b0b59ec9725}, !- Handle
  {f88a252b-6461-4848-86f1-34cd7b78c1a4}, !- Name
  {3e47e341-55c8-4d00-9f2c-1b547f6e9127}, !- Source Object
  11,                                     !- Outlet Port
  {581b1dc8-fd46-4440-aa7c-d44f0fdf474d}, !- Target Object
  2;                                      !- Inlet Port

OS:PortList,
  {62dbeb2f-7d9e-4b19-95e0-34f8edd63fc7}, !- Handle
  {fb71b532-dbf0-43de-89f7-ed488a1f31f2}, !- Name
  {3e47e341-55c8-4d00-9f2c-1b547f6e9127}; !- HVAC Component

OS:PortList,
  {a4158b9a-b3e6-4868-9f6a-154e44ceca75}, !- Handle
  {f1984c96-16a0-476a-a809-dbedde9344d8}, !- Name
  {3e47e341-55c8-4d00-9f2c-1b547f6e9127}; !- HVAC Component

OS:Sizing:Zone,
  {177377fb-0727-45ec-999f-32baa6c68f15}, !- Handle
  {3e47e341-55c8-4d00-9f2c-1b547f6e9127}, !- Zone or ZoneList Name
  14,                                     !- Zone Cooling Design Supply Air Temperature {C}
  40,                                     !- Zone Heating Design Supply Air Temperature {C}
  0.0085,                                 !- Zone Cooling Design Supply Air Humidity Ratio {kg-H2O/kg-air}
  0.008,                                  !- Zone Heating Design Supply Air Humidity Ratio {kg-H2O/kg-air}
  ,                                       !- Zone Heating Sizing Factor
  ,                                       !- Zone Cooling Sizing Factor
  DesignDay,                              !- Cooling Design Air Flow Method
  ,                                       !- Cooling Design Air Flow Rate {m3/s}
  ,                                       !- Cooling Minimum Air Flow per Zone Floor Area {m3/s-m2}
  ,                                       !- Cooling Minimum Air Flow {m3/s}
  ,                                       !- Cooling Minimum Air Flow Fraction
  DesignDay,                              !- Heating Design Air Flow Method
  ,                                       !- Heating Design Air Flow Rate {m3/s}
  ,                                       !- Heating Maximum Air Flow per Zone Floor Area {m3/s-m2}
  ,                                       !- Heating Maximum Air Flow {m3/s}
  ,                                       !- Heating Maximum Air Flow Fraction
  ,                                       !- Design Zone Air Distribution Effectiveness in Cooling Mode
  ;                                       !- Design Zone Air Distribution Effectiveness in Heating Mode

OS:ZoneHVAC:EquipmentList,
  {b6da18b7-bb2f-428e-9d54-131a2f969e4c}, !- Handle
  {553a54df-d663-48e8-b41c-8c07a526242b}, !- Name
  {3e47e341-55c8-4d00-9f2c-1b547f6e9127}; !- Thermal Zone

OS:Space,
  {e3fa0126-4578-432e-b037-386d2979d41c}, !- Handle
  RestroomFlr1,                           !- Name
  ,                                       !- Space Type Name
  ,                                       !- Default Construction Set Name
  ,                                       !- Default Schedule Set Name
  0,                                      !- Direction of Relative North {deg}
  0,                                      !- X Origin {m}
  0,                                      !- Y Origin {m}