
OS:Version,
  {dcb542cb-90f7-4821-80e2-dcc832c69b90}, !- Handle
  1.7.0;                                  !- Version Identifier

OS:Surface,
  {b4f4a050-2b21-4e9b-b57a-071f242dba91}, !- Handle
  Bulk Storage Front Wall,                !- Name
  Wall,                                   !- Surface Type
  ,                                       !- Construction Name
  {3847f8fd-bc66-4144-802d-fb55564efd91}, !- Space Name
  Surface,                                !- Outside Boundary Condition
  {2bc1ee82-2eb6-4276-b140-3c4c305eb866}, !- Outside Boundary Condition Object
  NoSun,                                  !- Sun Exposure
  NoWind,                                 !- Wind Exposure
  ,                                       !- View Factor to Ground
  ,                                       !- Number of Vertices
  45.7177703814647, 30.4785135876431, 8.53398380454007, !- X,Y,Z Vertex 1 {m}
  45.7177703814647, 30.4785135876431, 0,  !- X,Y,Z Vertex 2 {m}
  0, 30.4785135876431, 0,                 !- X,Y,Z Vertex 3 {m}
  0, 30.4785135876431, 8.53398380454007;  !- X,Y,Z Vertex 4 {m}

OS:Connection,
  {980051bb-101d-4ee0-b532-d52bd67617e1}, !- Handle
  {49d5470e-3653-4e1e-ab3b-aa6c3d5377dd}, !- Name
  ,                                       !- Source Object
  11,                                     !- Outlet Port
  ,                                       !- Target Object
  2;                                      !- Inlet Port

OS:Space,
  {3847f8fd-bc66-4144-802d-fb55564efd91}, !- Handle
  Zone3 Bulk Storage,                     !- Name
  ,                                       !- Space Type Name
  ,                                       !- Default Construction Set Name
  ,                                       !- Default Schedule Set Name
  0,                                      !- Direction of Relative North {deg}
  0,                                      !- X Origin {m}
  0,                                      !- Y Origin {m}
  0,                                      !- Z Origin {m}
  ,                                       !- Building Story Name
  ,                                       !- Thermal Zone Name
  Yes;                                    !- Part of Total Floor Area

OS:Connection,
  {71bfb953-2f0e-4218-8d72-a670cb25c840}, !- Handle
  {cfd0eae8-50f4-4cb5-b8f5-c221d2d15b61}, !- Name
  ,                                       !- Source Object
  11,                                     !- Outlet Port
  ,                                       !- Target Object
  2;                                      !- Inlet Port

OS:Space,
  {06c76363-650c-499c-8a84-de86365c333a}, !- Handle
  Zone2 Fine Storage,                     !- Name
  ,                                       !- Space Type Name
  ,                                       !- Default Construction Set Name
  ,                                       !- Default Schedule Set Name
  0,                                      !- Direction of Relative North {deg}
  0,                                      !- X Origin {m}
  0,                                      !- Y Origin {m}
  0,                                      !- Z Origin {m}
  ,                                       !- Building Story Name
  ,                                       !- Thermal Zone Name
  Yes;                                    !- Part of Total Floor Area

OS:Surface,
  {2bc1ee82-2eb6-4276-b140-3c4c305eb866}, !- Handle
  Bulk Storage Front Wall Reversed,       !- Name
  Wall,                                   !- Surface Type
  ,                                       !- Construction Name
  {06c76363-650c-499c-8a84-de86365c333a}, !- Space Name
  Surface,                                !- Outside Boundary Condition
  {b4f4a050-2b21-4e9b-b57a-071f242dba91}, !- Outside Boundary Condition Object
  NoSun,                                  !- Sun Exposure
  NoWind,                                 !- Wind Exposure
  ,                                       !- View Factor to Ground
  ,                                       !- Number of Vertices
  0, 30.4785135876431, 8.53398380454007,  !- X,Y,Z Vertex 1 {m}
  0, 30.4785135876431, 0,                 !- X,Y,Z Vertex 2 {m}
  45.7177703814647, 30.4785135876431, 0,  !- X,Y,Z Vertex 3 {m}
  45.7177703814647, 30.4785135876431, 8.53398380454007; !- X,Y,Z Vertex 4 {m}

OS:SubSurface,
  {9b8c2747-0d32-4630-9b43-09abe23aea1a}, !- Handle
  Skylight_r7c1,                          !- Name
  Skylight,                               !- Sub Surface Type
  ,                                       !- Construction Name
  {f5f0e1b6-99f8-48c5-9568-774604de6e0d}, !- Surface Name
  ,                                       !- Outside Boundary Condition Object
  ,                                       !- View Factor to Ground
  ,                                       !- Shading Control Name
  ,                                       !- Frame and Divider Name
  ,                                       !- Multiplier
  ,                                       !- Number of Vertices
  9.50753, 34.440914, 8.533984,           !- X,Y,Z Vertex 1 {m}
  9.50753, 35.660114, 8.533984,           !- X,Y,Z Vertex 2 {m}
  8.28833, 35.660114, 8.533984,           !- X,Y,Z Vertex 3 {m}
  8.28833, 34.440914, 8.533984;           !- X,Y,Z Vertex 4 {m}

OS:Surface,
  {f5f0e1b6-99f8-48c5-9568-774604de6e0d}, !- Handle
  Bulk Storage Roof,                      !- Name
  RoofCeiling,                            !- Surface Type
  ,                                       !- Construction Name
  {3847f8fd-bc66-4144-802d-fb55564efd91}, !- Space Name
  Outdoors,                               !- Outside Boundary Condition
  ,                                       !- Outside Boundary Condition Object
  SunExposed,                             !- Sun Exposure
  WindExposed,                            !- Wind Exposure
  ,                                       !- View Factor to Ground
  ,                                       !- Number of Vertices
  45.7177703814647, 30.4785135876431, 8.53398380454007, !- X,Y,Z Vertex 1 {m}
  45.7177703814647, 100.579094839222, 8.53398380454007, !- X,Y,Z Vertex 2 {m}
  0, 100.579094839222, 8.53398380454007,  !- X,Y,Z Vertex 3 {m}
  0, 30.4785135876431, 8.53398380454007;  !- X,Y,Z Vertex 4 {m}

OS:WindowProperty:FrameAndDivider,
  {4ef2e21a-b14f-4dfc-981d-51724fe1d0ad}, !- Handle
  Skylight_Frame,                         !- Name
  0.7129,                                 !- Frame Width {m}
  ,                                       !- Frame Outside Projection {m}
  ,                                       !- Frame Inside Projection {m}
  283.91,                                 !- Frame Conductance {W/m2-K}
  1,                                      !- Ratio of Frame-Edge Glass Conductance to Center-Of-Glass Conductance
  0.7,                                    !- Frame Solar Absorptance
  0.7,                                    !- Frame Visible Absorptance
  0.9,                                    !- Frame Thermal Hemispherical Emissivity
  ,                                       !- Divider Type
  ,                                       !- Divider Width {m}
  ,                                       !- Number of Horizontal Dividers
  ,                                       !- Number of Vertical Dividers
  ,                                       !- Divider Outside Projection {m}
  ,                                       !- Divider Inside Projection {m}
  ,                                       !- Divider Conductance {W/m2-K}
  1,                                      !- Ratio of Divider-Edge Glass Conductance to Center-Of-Glass Conductance
  ,                                       !- Divider Solar Absorptance
  ,                                       !- Divider Visible Absorptance
  0.9;                                    !- Divider Thermal Hemispherical Emissivity

OS:Surface,
  {1826db6c-4e54-4122-b13a-8f28d476a3d7}, !- Handle
  Office Floor,                           !- Name
  Floor,                                  !- Surface Type
  ,                                       !- Construction Name
  {1631d512-0e93-4cd8-b6d6-4f2cf71f6fcf}, !- Space Name
  Ground,                                 !- Outside Boundary Condition
  ,                                       !- Outside Boundary Condition Object
  NoSun,                                  !- Sun Exposure
  NoWind,                                 !- Wind Exposure
  ,                                       !- View Factor to Ground
  ,                                       !- Number of Vertices
  25.9067365494966, 9.14355407629293, 0,  !- X,Y,Z Vertex 1 {m}
  25.9067365494966, 0, 0,                 !- X,Y,Z Vertex 2 {m}
  0, 0, 0,                                !- X,Y,Z Vertex 3 {m}
  0, 9.14355407629293, 0;                 !- X,Y,Z Vertex 4 {m}

OS:Connection,
  {6166932c-07ab-4f56-898f-9c51bfb4d7a2}, !- Handle
  {5cd77d6f-2985-4d30-b5e6-fb25367ecc95}, !- Name
  ,                                       !- Source Object
  11,                                     !- Outlet Port
  ,                                       !- Target Object
  2;                                      !- Inlet Port

OS:Space,
  {1631d512-0e93-4cd8-b6d6-4f2cf71f6fcf}, !- Handle
  Zone1 Office,                           !- Name
  ,                                       !- Space Type Name
  ,                                       !- Default Construction Set Name
  ,                                       !- Default Schedule Set Name
  0,                                      !- Direction of Relative North {deg}
  0,                                      !- X Origin {m}
  0,                                      !- Y Origin {m}
  0,                                      !- Z Origin {m}
  ,                                       !- Building Story Name
  ,                                       !- Thermal Zone Name
  Yes;                                    !- Part of Total Floor Area

OS:SubSurface,
  {997231df-0052-425b-a315-65f53201593c}, !- Handle
  FineStorage_skylight_12,                !- Name
  Skylight,                               !- Sub Surface Type
  ,                                       !- Construction Name
  {6f4074cf-a0ec-4e40-98c0-a1265daca4ff}, !- Surface Name
  ,                                       !- Outside Boundary Condition Object
  ,                                       !- View Factor to Ground
  ,                                       !- Shading Control Name
  ,                                       !- Frame and Divider Name
  ,                                       !- Multiplier
  ,                                       !- Number of Vertices
  6.3246, 26.058914, 8.533984,            !- X,Y,Z Vertex 1 {m}
  6.3246, 27.278114, 8.533984,            !- X,Y,Z Vertex 2 {m}
  5.1054, 27.278114, 8.533984,            !- X,Y,Z Vertex 3 {m}
  5.1054, 26.058914, 8.533984;            !- X,Y,Z Vertex 4 {m}

OS:Surface,
  {6f4074cf-a0ec-4e40-98c0-a1265daca4ff}, !- Handle
  Fine Storage Roof,                      !- Name
  RoofCeiling,                            !- Surface Type
  ,                                       !- Construction Name
  {06c76363-650c-499c-8a84-de86365c333a}, !- Space Name
  Outdoors,                               !- Outside Boundary Condition
  ,                                       !- Outside Boundary Condition Object
  SunExposed,                             !- Sun Exposure
  WindExposed,                            !- Wind Exposure
  ,                                       !- View Factor to Ground
  ,                                       !- Number of Vertices
  45.7177703814647, 0, 8.53398380454007,  !- X,Y,Z Vertex 1 {m}
  45.7177703814647, 30.4785135876431, 8.53398380454007, !- X,Y,Z Vertex 2 {m}
  0, 30.4785135876431, 8.53398380454007,  !- X,Y,Z Vertex 3 {m}
  0, 0, 8.53398380454007;                 !- X,Y,Z Vertex 4 {m}

OS:Surface,
  {93de8f6f-ea95-42ab-9010-20cbc868efcd}, !- Handle
  Fine Storage Right Wall,                !- Name
  Wall,                                   !- Surface Type
  ,                                       !- Construction Name
  {06c76363-650c-499c-8a84-de86365c333a}, !- Space Name
  Outdoors,                               !- Outside Boundary Condition
  ,                                       !- Outside Boundary Condition Object
  SunExposed,                             !- Sun Exposure
  WindExposed,                            !- Wind Exposure
  ,                                       !- View Factor to Ground
  ,                                       !- Number of Vertices
  45.7177703814647, 0, 8.53398380454007,  !- X,Y,Z Vertex 1 {m}
  45.7177703814647, 0, 0,                 !- X,Y,Z Vertex 2 {m}
  45.7177703814647, 30.4785135876431, 0,  !- X,Y,Z Vertex 3 {m}
  45.7177703814647, 30.4785135876431, 8.53398380454007; !- X,Y,Z Vertex 4 {m}

OS:SubSurface,
  {5c4fe53e-6d8a-4d20-a8ad-f50674654f03}, !- Handle
  FineStorage_skylight_9,                 !- Name
  Skylight,                               !- Sub Surface Type
  ,                                       !- Construction Name
  {6f4074cf-a0ec-4e40-98c0-a1265daca4ff}, !- Surface Name
  ,                                       !- Outside Boundary Condition Object
  ,                                       !- View Factor to Ground
  ,                                       !- Shading Control Name
  ,                                       !- Frame and Divider Name
  ,                                       !- Multiplier
  ,                                       !- Number of Vertices
  34.8996, 18.438914, 8.533984,           !- X,Y,Z Vertex 1 {m}
  34.8996, 19.658114, 8.533984,           !- X,Y,Z Vertex 2 {m}
  33.6804, 19.658114, 8.533984,           !- X,Y,Z Vertex 3 {m}
  33.6804, 18.438914, 8.533984;           !- X,Y,Z Vertex 4 {m}

OS:SubSurface,
  {ae07125f-9708-4276-92c3-056506ad7893}, !- Handle
  Skylight_r3c4,                          !- Name
  Skylight,                               !- Sub Surface Type
  ,                                       !- Construction Name
  {f5f0e1b6-99f8-48c5-9568-774604de6e0d}, !- Surface Name
  ,                                       !- Outside Boundary Condition Object
  ,                                       !- View Factor to Ground
  ,                                       !- Shading Control Name
  ,                                       !- Frame and Divider Name
  ,                                       !- Multiplier
  ,                                       !- Number of Vertices
  31.81889, 51.712914, 8.533984,          !- X,Y,Z Vertex 1 {m}
  31.81889, 52.932114, 8.533984,          !- X,Y,Z Vertex 2 {m}
  30.59969, 52.932114, 8.533984,          !- X,Y,Z Vertex 3 {m}
  30.59969, 51.712914, 8.533984;          !- X,Y,Z Vertex 4 {m}

OS:SubSurface,
  {50155201-594c-4367-a3af-c3012ad84709}, !- Handle
  Skylight_r1c4,                          !- Name
  Skylight,                               !- Sub Surface Type
  ,                                       !- Construction Name
  {f5f0e1b6-99f8-48c5-9568-774604de6e0d}, !- Surface Name
  ,                                       !- Outside Boundary Condition Object
  ,                                       !- View Factor to Ground
  ,                                       !- Shading Control Name
  ,                                       !- Frame and Divider Name
  ,                                       !- Multiplier
  ,                                       !- Number of Vertices
  42.97457, 60.348914, 8.533984,          !- X,Y,Z Vertex 1 {m}
  42.97457, 61.568114, 8.533984,          !- X,Y,Z Vertex 2 {m}
  41.75537, 61.568114, 8.533984,          !- X,Y,Z Vertex 3 {m}
  41.75537, 60.348914, 8.533984;          !- X,Y,Z Vertex 4 {m}

OS:SubSurface,
  {8d40a7a6-8c20-49c1-a9f8-2327f2d6f257}, !- Handle
  FineStorage_skylight_2,                 !- Name
  Skylight,                               !- Sub Surface Type
  ,                                       !- Construction Name
  {6f4074cf-a0ec-4e40-98c0-a1265daca4ff}, !- Surface Name
  ,                                       !- Outside Boundary Condition Object
  ,                                       !- View Factor to Ground
  ,                                       !- Shading Control Name
  ,                                       !- Frame and Divider Name
  ,                                       !- Multiplier
  ,                                       !- Number of Vertices
  23.4696, 26.058914, 8.533984,           !- X,Y,Z Vertex 1 {m}
  23.4696, 27.278114, 8.533984,           !- X,Y,Z Vertex 2 {m}
  22.2504, 27.278114, 8.533984,           !- X,Y,Z Vertex 3 {m}
  22.2504, 26.058914, 8.533984;           !- X,Y,Z Vertex 4 {m}

OS:Surface,
  {060d006e-d9eb-4015-84bd-0c685b694252}, !- Handle
  Fine Storage Front Wall,                !- Name
  Wall,                                   !- Surface Type
  ,                                       !- Construction Name
  {06c76363-650c-499c-8a84-de86365c333a}, !- Space Name
  Outdoors,                               !- Outside Boundary Condition
  ,                                       !- Outside Boundary Condition Object
  SunExposed,                             !- Sun Exposure
  WindExposed,                            !- Wind Exposure
  ,                                       !- View Factor to Ground
  ,                                       !- Number of Vertices
  25.9067365494966, 0, 8.53398380454007,  !- X,Y,Z Vertex 1 {m}
  25.9067365494966, 0, 0,                 !- X,Y,Z Vertex 2 {m}
  45.7177703814647, 0, 0,                 !- X,Y,Z Vertex 3 {m}
  45.7177703814647, 0, 8.53398380454007;  !- X,Y,Z Vertex 4 {m}

OS:SubSurface,
  {5c8ab1aa-c427-4c8c-93cb-cd0f0776e8af}, !- Handle
  Skylight_r6c1,                          !- Name
  Skylight,                               !- Sub Surface Type
  ,                                       !- Construction Name
  {f5f0e1b6-99f8-48c5-9568-774604de6e0d}, !- Surface Name
  ,                                       !- Outside Boundary Condition Object
  ,                                       !- View Factor to Ground
  ,                                       !- Shading Control Name
  ,                                       !- Frame and Divider Name
  ,                                       !- Multiplier
  ,                                       !- Number of Vertices
  15.08537, 34.440914, 8.533984,          !- X,Y,Z Vertex 1 {m}
  15.08537, 35.660114, 8.533984,          !- X,Y,Z Vertex 2 {m}
  13.86617, 35.660114, 8.533984,          !- X,Y,Z Vertex 3 {m}
  13.86617, 34.440914, 8.533984;          !- X,Y,Z Vertex 4 {m}

OS:SubSurface,
  {5939d918-68f4-4c82-98fa-c017b80d729d}, !- Handle
  Office Front Door,                      !- Name
  Door,                                   !- Sub Surface Type
  ,                                       !- Construction Name
  {3d37084d-9778-47a1-93dd-6a74eb963027}, !- Surface Name
  ,                                       !- Outside Boundary Condition Object
  ,                                       !- View Factor to Ground
  ,                                       !- Shading Control Name
  ,                                       !- Frame and Divider Name
  1,                                      !- Multiplier
  ,                                       !- Number of Vertices
  12.039012867119, 0, 2.13349595113502,   !- X,Y,Z Vertex 1 {m}
  12.039012867119, 0, 0,                  !- X,Y,Z Vertex 2 {m}
  13.8677236823776, 0, 0,                 !- X,Y,Z Vertex 3 {m}
  13.8677236823776, 0, 2.13349595113502;  !- X,Y,Z Vertex 4 {m}

OS:Surface,
  {3d37084d-9778-47a1-93dd-6a74eb963027}, !- Handle
  Office Front Wall,                      !- Name
  Wall,                                   !- Surface Type
  ,                                       !- Construction Name
  {1631d512-0e93-4cd8-b6d6-4f2cf71f6fcf}, !- Space Name
  Outdoors,                               !- Outside Boundary Condition
  ,                                       !- Outside Boundary Condition Object
  SunExposed,                             !- Sun Exposure
  WindExposed,                            !- Wind Exposure
  ,                                       !- View Factor to Ground
  ,                                       !- Number of Vertices
  0, 0, 4.26699190227003,                 !- X,Y,Z Vertex 1 {m}
  0, 0, 0,                                !- X,Y,Z Vertex 2 {m}
  25.9067365494966, 0, 0,                 !- X,Y,Z Vertex 3 {m}
  25.9067365494966, 0, 4.26699190227003;  !- X,Y,Z Vertex 4 {m}

OS:SubSurface,
  {7ce3eb6e-4766-42ec-a22f-151d1036ae15}, !- Handle
  Skylight_r3c3,                          !- Name
  Skylight,                               !- Sub Surface Type
  ,                                       !- Construction Name
  {f5f0e1b6-99f8-48c5-9568-774604de6e0d}, !- Surface Name
  ,                                       !- Outside Boundary Condition Object
  ,                                       !- View Factor to Ground
  ,                                       !- Shading Control Name
  ,                                       !- Frame and Divider Name
  ,                                       !- Multiplier
  ,                                       !- Number of Vertices
  31.81889, 60.348914, 8.533984,          !- X,Y,Z Vertex 1 {m}
  31.81889, 61.568114, 8.533984,          !- X,Y,Z Vertex 2 {m}
  30.59969, 61.568114, 8.533984,          !- X,Y,Z Vertex 3 {m}
  30.59969, 60.348914, 8.533984;          !- X,Y,Z Vertex 4 {m}

OS:Surface,
  {4363f422-1fbe-410b-a6b6-5cf978bace4c}, !- Handle
  Bulk Storage Right Wall,                !- Name
  Wall,                                   !- Surface Type
  ,                                       !- Construction Name
  {3847f8fd-bc66-4144-802d-fb55564efd91}, !- Space Name
  Outdoors,                               !- Outside Boundary Condition
  ,                                       !- Outside Boundary Condition Object
  SunExposed,                             !- Sun Exposure
  WindExposed,                            !- Wind Exposure
  ,                                       !- View Factor to Ground
  ,                                       !- Number of Vertices
  45.7177703814647, 30.4785135876431, 8.53398380454007, !- X,Y,Z Vertex 1 {m}
  45.7177703814647, 30.4785135876431, 0,  !- X,Y,Z Vertex 2 {m}
  45.7177703814647, 100.579094839222, 0,  !- X,Y,Z Vertex 3 {m}
  45.7177703814647, 100.579094839222, 8.53398380454007; !- X,Y,Z Vertex 4 {m}

OS:Surface,
  {3ca2d463-d3ca-4ca1-849a-999de4f99fbd}, !- Handle
  Fine Storage Left Wall,                 !- Name
  Wall,                                   !- Surface Type
  ,                                       !- Construction Name
  {06c76363-650c-499c-8a84-de86365c333a}, !- Space Name
  Outdoors,                               !- Outside Boundary Condition
  ,                                       !- Outside Boundary Condition Object
  SunExposed,                             !- Sun Exposure
  WindExposed,                            !- Wind Exposure
  ,                                       !- View Factor to Ground
  ,                                       !- Number of Vertices
  0, 30.4785135876431, 8.53398380454007,  !- X,Y,Z Vertex 1 {m}
  0, 30.4785135876431, 0,                 !- X,Y,Z Vertex 2 {m}
  0, 9.14355407629293, 0,                 !- X,Y,Z Vertex 3 {m}
  0, 9.14355407629293, 8.53398380454007;  !- X,Y,Z Vertex 4 {m}

OS:SubSurface,
  {17997a4c-215b-4acc-8467-be49a900f084}, !- Handle
  Overhead Door 1,                        !- Name
  Door,                                   !- Sub Surface Type
  ,                                       !- Construction Name
  {45900c2e-3a47-42e5-bcf8-346a13c3b491}, !- Surface Name
  ,                                       !- Outside Boundary Condition Object
  ,                                       !- View Factor to Ground
  ,                                       !- Shading Control Name
  ,                                       !- Frame and Divider Name
  1,                                      !- Multiplier
  ,                                       !- Number of Vertices
  0, 93.9500181339099, 3.04785135876431,  !- X,Y,Z Vertex 1 {m}
  0, 93.9500181339099, 0,                 !- X,Y,Z Vertex 2 {m}
  0, 91.5117370468984, 0,                 !- X,Y,Z Vertex 3 {m}
  0, 91.5117370468984, 3.04785135876431;  !- X,Y,Z Vertex 4 {m}

OS:Surface,
  {45900c2e-3a47-42e5-bcf8-346a13c3b491}, !- Handle
  Bulk Storage Left Wall,                 !- Name
  Wall,                                   !- Surface Type
  ,                                       !- Construction Name
  {3847f8fd-bc66-4144-802d-fb55564efd91}, !- Space Name
  Outdoors,                               !- Outside Boundary Condition
  ,                                       !- Outside Boundary Condition Object
  SunExposed,                             !- Sun Exposure
  WindExposed,                            !- Wind Exposure
  ,                                       !- View Factor to Ground
  ,                                       !- Number of Vertices
  0, 100.579094839222, 8.53398380454007,  !- X,Y,Z Vertex 1 {m}
  0, 100.579094839222, 0,                 !- X,Y,Z Vertex 2 {m}
  0, 30.4785135876431, 0,                 !- X,Y,Z Vertex 3 {m}
  0, 30.4785135876431, 8.53398380454007;  !- X,Y,Z Vertex 4 {m}

OS:SubSurface,
  {311b8331-a756-4f2c-9fee-63e7b44e9ab4}, !- Handle
  Skylight_r2c2,                          !- Name
  Skylight,                               !- Sub Surface Type
  ,                                       !- Construction Name
  {f5f0e1b6-99f8-48c5-9568-774604de6e0d}, !- Surface Name
  ,                                       !- Outside Boundary Condition Object
  ,                                       !- View Factor to Ground
  ,                                       !- Shading Control Name
  ,                                       !- Frame and Divider Name
  ,                                       !- Multiplier
  ,                                       !- Number of Vertices
  37.39673, 43.076914, 8.533984,          !- X,Y,Z Vertex 1 {m}
  37.39673, 44.296114, 8.533984,          !- X,Y,Z Vertex 2 {m}
  36.17753, 44.296114, 8.533984,          !- X,Y,Z Vertex 3 {m}
  36.17753, 43.076914, 8.533984;          !- X,Y,Z Vertex 4 {m}

OS:Surface,
  {cb2a7717-1003-44e7-81f9-5c3f151c4792}, !- Handle
  Fine Storage Office Front Wall,         !- Name
  Wall,                                   !- Surface Type
  ,                                       !- Construction Name
  {06c76363-650c-499c-8a84-de86365c333a}, !- Space Name
  Outdoors,                               !- Outside Boundary Condition
  ,                                       !- Outside Boundary Condition Object
  SunExposed,                             !- Sun Exposure
  WindExposed,                            !- Wind Exposure
  ,                                       !- View Factor to Ground
  ,                                       !- Number of Vertices
  0, 0, 8.53398380454007,                 !- X,Y,Z Vertex 1 {m}
  0, 0, 4.26699190227003,                 !- X,Y,Z Vertex 2 {m}
  25.9067365494966, 0, 4.26699190227003,  !- X,Y,Z Vertex 3 {m}
  25.9067365494966, 0, 8.53398380454007;  !- X,Y,Z Vertex 4 {m}

OS:Surface,
  {de190d5d-5192-4900-b2fc-76d1f041a3d5}, !- Handle
  Fine Storage Floor,                     !- Name
  Floor,                                  !- Surface Type
  ,                                       !- Construction Name
  {06c76363-650c-499c-8a84-de86365c333a}, !- Space Name
  Ground,                                 !- Outside Boundary Condition
  ,                                       !- Outside Boundary Condition Object
  NoSun,                                  !- Sun Exposure
  NoWind,                                 !- Wind Exposure
  ,                                       !- View Factor to Ground
  ,                                       !- Number of Vertices
  45.7177703814647, 30.4785135876431, 0,  !- X,Y,Z Vertex 1 {m}
  45.7177703814647, 0, 0,                 !- X,Y,Z Vertex 2 {m}
  25.9067365494966, 0, 0,                 !- X,Y,Z Vertex 3 {m}
  25.9067365494966, 9.14355407629293, 0,  !- X,Y,Z Vertex 4 {m}
  0, 9.14355407629293, 0,                 !- X,Y,Z Vertex 5 {m}
  0, 30.4785135876431, 0;                 !- X,Y,Z Vertex 6 {m}

OS:SubSurface,
  {ae3a270e-417c-4a53-ba83-8ffaa8b5fea5}, !- Handle
  Office Front Wall Window2,              !- Name
  FixedWindow,                            !- Sub Surface Type
  ,                                       !- Construction Name
  {3d37084d-9778-47a1-93dd-6a74eb963027}, !- Surface Name
  ,                                       !- Outside Boundary Condition Object
  ,                                       !- View Factor to Ground
  ,                                       !- Shading Control Name
  ,                                       !- Frame and Divider Name
  1,                                      !- Multiplier
  ,                                       !- Number of Vertices
  18.5918932884623, 0, 2.43929602151392,  !- X,Y,Z Vertex 1 {m}
  18.5918932884623, 0, 0.914355407629293, !- X,Y,Z Vertex 2 {m}
  22.2493149189795, 0, 0.914355407629293, !- X,Y,Z Vertex 3 {m}
  22.2493149189795, 0, 2.43929602151392;  !- X,Y,Z Vertex 4 {m}

OS:SubSurface,
  {544f923e-ad25-4ff5-8f14-c3ed5b3642ab}, !- Handle
  Skylight_r2c4,                          !- Name
  Skylight,                               !- Sub Surface Type
  ,                                       !- Construction Name
  {f5f0e1b6-99f8-48c5-9568-774604de6e0d}, !- Surface Name
  ,                                       !- Outside Boundary Condition Object
  ,                                       !- View Factor to Ground
  ,                                       !- Shading Control Name
  ,                                       !- Frame and Divider Name
  ,                                       !- Multiplier
  ,                                       !- Number of Vertices
  37.39673, 60.348914, 8.533984,          !- X,Y,Z Vertex 1 {m}
  37.39673, 61.568114, 8.533984,          !- X,Y,Z Vertex 2 {m}