
OS:Version,
  {4280dbb1-add9-447c-a805-360866956cbb}, !- Handle
  1.3.0;                                  !- Version Identifier

OS:Site,
  {e965546a-14bc-48e6-81e8-791894ff69dd}, !- Handle
  USA IL-CHICAGO-OHARE,                   !- Name
  41.77,                                  !- Latitude {deg}
  -87.75,                                 !- Longitude {deg}
  -6,                                     !- Time Zone {hr}
  190,                                    !- Elevation {m}
  City;                                   !- Terrain

OS:SimulationControl,
  {74fffbd1-6a51-4476-9082-b380fcfa66b5}, !- Handle
  Yes,                                    !- Do Zone Sizing Calculation
  Yes,                                    !- Do System Sizing Calculation
  Yes,                                    !- Do Plant Sizing Calculation
  No,                                     !- Run Simulation for Sizing Periods
  Yes,                                    !- Run Simulation for Weather File Run Periods
  0.04,                                   !- Loads Convergence Tolerance Value
  0.2,                                    !- Temperature Convergence Tolerance Value {deltaC}
  FullInteriorAndExterior,                !- Solar Distribution
  25,                                     !- Maximum Number of Warmup Days
  6;                                      !- Minimum Number of Warmup Days

OS:Curve:Biquadratic,
  {0f207513-dad1-4b9e-80e2-ae9759f86e31}, !- Handle
  Cool-Cap-fT,                            !- Name
  0.9712123,                              !- Coefficient1 Constant
  -0.015275502,                           !- Coefficient2 x
  0.0014434524,                           !- Coefficient3 x**2
  -0.00039321,                            !- Coefficient4 y
  -6.8364e-006,                           !- Coefficient5 y**2
  -0.0002905956,                          !- Coefficient6 x*y
  -100,                                   !- Minimum Value of x {BasedOnField A2}
  100,                                    !- Maximum Value of x {BasedOnField A2}
  -100,                                   !- Minimum Value of y {BasedOnField A3}
  100;                                    !- Maximum Value of y {BasedOnField A3}

OS:HeatBalanceAlgorithm,
  {267137cb-18a4-454b-bc66-7e68813ea1fe}, !- Handle
  ConductionTransferFunction,             !- Algorithm
  200;                                    !- Surface Temperature Upper Limit {F}

OS:Curve:Biquadratic,
  {3448e894-a20d-4bc9-8b48-bd5aed653b2a}, !- Handle
  Cool-EIR-fT,                            !- Name
  0.28687133,                             !- Coefficient1 Constant
  0.023902164,                            !- Coefficient2 x
  -0.000810648,                           !- Coefficient3 x**2
  0.013458546,                            !- Coefficient4 y
  0.0003389364,                           !- Coefficient5 y**2
  -0.0004870044,                          !- Coefficient6 x*y
  -100,                                   !- Minimum Value of x {BasedOnField A2}
  100,                                    !- Maximum Value of x {BasedOnField A2}
  -100,                                   !- Minimum Value of y {BasedOnField A3}
  100;                                    !- Maximum Value of y {BasedOnField A3}

OS:Material,
  {4a5e5ad3-4444-431b-af52-73431072d433}, !- Handle
  1IN Stucco,                             !- Name
  Smooth,                                 !- Roughness
  0.0253,                                 !- Thickness {m}
  0.6918,                                 !- Conductivity {W/m-K}
  1858,                                   !- Density {kg/m3}
  837,                                    !- Specific Heat {J/kg-K}
  0.9,                                    !- Thermal Absorptance
  0.92,                                   !- Solar Absorptance
  0.92;                                   !- Visible Absorptance

OS:ElectricEquipment:Definition,
  {eb3d1c77-5942-4d3f-99a0-fbf4bf1625b5}, !- Handle
  Kitchen_MiscElec_Equip Definition,      !- Name
  EquipmentLevel,                         !- Design Level Calculation Method
  52500,                                  !- Design Level {W}
  ,                                       !- Watts per Space Floor Area {W/m2}
  ,                                       !- Watts per Person {W/person}
  0.25,                                   !- Fraction Latent
  0.3,                                    !- Fraction Radiant
  0.2;                                    !- Fraction Lost

OS:ElectricEquipment,
  {29e2f23c-36c9-4739-a68b-cdd333a8732c}, !- Handle
  Kitchen_MiscElec_Equip,                 !- Name
  {eb3d1c77-5942-4d3f-99a0-fbf4bf1625b5}, !- Electric Equipment Definition Name
  {2fa76d87-399e-43f9-b532-f71f9a905ff6}, !- Space or SpaceType Name
  {990aab75-4078-4b5a-adfd-1c190de489d8}, !- Schedule Name
  ,                                       !- Multiplier
  MiscElec;                               !- End-Use Subcategory

OS:ThermalZone,
  {3d137624-6273-4196-ad00-576c10315adf}, !- Handle
  Kitchen Thermal Zone,                   !- Name
  1,                                      !- Multiplier
  ,                                       !- Ceiling Height {m}
  ,                                       !- Volume {m3}
  ,                                       !- Floor Area {m2}
  ,                                       !- Zone Inside Convection Algorithm
  ,                                       !- Zone Outside Convection Algorithm
  ,                                       !- Zone Conditioning Equipment List Name
  {e48de952-d23d-4417-a197-5bcc1e4fb72f}, !- Zone Air Inlet Port List
  {c1aee3ec-9cdf-4f4c-855f-0e1c05c44cea}, !- Zone Air Exhaust Port List
  {21e90863-b647-4892-8ba7-16c224fd2560}, !- Zone Air Node Name
  ,                                       !- Zone Return Air Node Name
  ,                                       !- Primary Daylighting Control Name
  ,                                       !- Fraction of Zone Controlled by Primary Daylighting Control
  ,                                       !- Secondary Daylighting Control Name
  ,                                       !- Fraction of Zone Controlled by Secondary Daylighting Control
  ,                                       !- Illuminance Map Name
  ,                                       !- Group Rendering Name
  {df3633f1-89d5-4c4b-bc30-807141d7589e}, !- Thermostat Name
  No;                                     !- Use Ideal Air Loads

OS:Node,
  {8928d3f0-5910-4803-a7d7-0d7720ef621b}, !- Handle
  {8d59d57e-d5f1-4463-9614-2fdd197b93bc}, !- Name
  {21e90863-b647-4892-8ba7-16c224fd2560}, !- Inlet Port
  ;                                       !- Outlet Port

OS:Connection,
  {21e90863-b647-4892-8ba7-16c224fd2560}, !- Handle
  {a8121c52-0338-40ed-9e39-c329ee10e0bb}, !- Name
  {3d137624-6273-4196-ad00-576c10315adf}, !- Source Object
  11,                                     !- Outlet Port
  {8928d3f0-5910-4803-a7d7-0d7720ef621b}, !- Target Object
  2;                                      !- Inlet Port

OS:PortList,
  {e48de952-d23d-4417-a197-5bcc1e4fb72f}, !- Handle
  {fc8b0cf2-b678-474b-9695-8f572abc741b}, !- Name
  {3d137624-6273-4196-ad00-576c10315adf}; !- HVAC Component

OS:PortList,
  {c1aee3ec-9cdf-4f4c-855f-0e1c05c44cea}, !- Handle
  {0d301630-8f36-493c-b0a8-41ac4837e5dc}, !- Name
  {3d137624-6273-4196-ad00-576c10315adf}; !- HVAC Component

OS:Sizing:Zone,
  {734f4a19-a029-4e24-bd69-b22bcd3322ec}, !- Handle
  {3d137624-6273-4196-ad00-576c10315adf}, !- Zone or ZoneList Name
  14,                                     !- Zone Cooling Design Supply Air Temperature {C}
  40,                                     !- Zone Heating Design Supply Air Temperature {C}
  0.0085,                                 !- Zone Cooling Design Supply Air Humidity Ratio {kg-H2O/kg-air}
  0.008,                                  !- Zone Heating Design Supply Air Humidity Ratio {kg-H2O/kg-air}
  ,                                       !- Zone Heating Sizing Factor
  ,                                       !- Zone Cooling Sizing Factor
  DesignDay,                              !- Cooling Design Air Flow Method
  ,                                       !- Cooling Design Air Flow Rate {m3/s}
  ,                                       !- Cooling Minimum Air Flow per Zone Floor Area {m3/s-m2}
  ,                                       !- Cooling Minimum Air Flow {m3/s}
  ,                                       !- Cooling Minimum Air Flow Fraction
  DesignDay,                              !- Heating Design Air Flow Method
  ,                                       !- Heating Design Air Flow Rate {m3/s}
  ,                                       !- Heating Maximum Air Flow per Zone Floor Area {m3/s-m2}
  ,                                       !- Heating Maximum Air Flow {m3/s}
  ,                                       !- Heating Maximum Air Flow Fraction
  ,                                       !- Design Zone Air Distribution Effectiveness in Cooling Mode
  ;                                       !- Design Zone Air Distribution Effectiveness in Heating Mode

OS:ZoneHVAC:EquipmentList,
  {daa93337-b479-487c-bfb5-9c9457fa79b8}, !- Handle
  {151c9297-ba15-447b-9f4e-4debe7e682b6}, !- Name
  {3d137624-6273-4196-ad00-576c10315adf}; !- Thermal Zone

OS:Space,
  {2fa76d87-399e-43f9-b532-f71f9a905ff6}, !- Handle
  Kitchen,                                !- Name
  ,                                       !- Space Type Name
  ,                                       !- Default Construction Set Name
  ,                                       !- Default Schedule Set Name
  0,                                      !- Direction of Relative North {deg}
  0,                                      !- X Origin {m}
  0,                                      !- Y Origin {m}
  0,                                      !- Z Origin {m}
  ,                                       !- Building Story Name
  {3d137624-6273-4196-ad00-576c10315adf}, !- Thermal Zone Name
  Yes;                                    !- Part of Total Floor Area

OS:ThermostatSetpoint:DualSetpoint,
  {df3633f1-89d5-4c4b-bc30-807141d7589e}, !- Handle
  {26901db2-07fa-48d8-873b-80a489669401}, !- Name
  {84ff504f-a90f-46c6-b25b-ebb8cfea177c}, !- Heating Setpoint Temperature Schedule Name
  {887ee7ca-c9d3-4022-a465-d7ccdac7a10a}; !- Cooling Setpoint Temperature Schedule Name

OS:Schedule:Compact,
  {84ff504f-a90f-46c6-b25b-ebb8cfea177c}, !- Handle
  HTGSETP_KITCHEN_SCH,                    !- Name
  {3bf17666-84eb-4af3-9b26-60f5a90ca89e}, !- Schedule Type Limits Name
  Through: 12/31,                         !- Field 1
  For: SummerDesignDay,                   !- Field 2
  Until: 24:00,                           !- Field 3
  15.6,                                   !- Field 4
  For: WinterDesignDay,                   !- Field 5
  Until: 24:00,                           !- Field 6
  19,                                     !- Field 7
  For: AllOtherDays,                      !- Field 8
  Until: 01:00,                           !- Field 9
  19,                                     !- Field 10
  Until: 05:00,                           !- Field 11
  15.6,                                   !- Field 12
  Until: 24:00,                           !- Field 13
  19;                                     !- Field 14

OS:ScheduleTypeLimits,
  {3bf17666-84eb-4af3-9b26-60f5a90ca89e}, !- Handle
  Temperature,                            !- Name
  -60,                                    !- Lower Limit Value {BasedOnField A4}
  200,                                    !- Upper Limit Value {BasedOnField A4}
  CONTINUOUS,                             !- Numeric Type
  Temperature;                            !- Unit Type

OS:Schedule:Compact,
  {887ee7ca-c9d3-4022-a465-d7ccdac7a10a}, !- Handle
  CLGSETP_KITCHEN_SCH,                    !- Name
  {3bf17666-84eb-4af3-9b26-60f5a90ca89e}, !- Schedule Type Limits Name
  Through: 12/31,                         !- Field 1
  For: WinterDesignDay,                   !- Field 2
  Until: 24:00,                           !- Field 3
  30,                                     !- Field 4
  For: AllOtherDays,                      !- Field 5
  Until: 01:00,                           !- Field 6
  26,                                     !- Field 7
  Until: 05:00,                           !- Field 8
  30,                                     !- Field 9
  Until: 24:00,                           !- Field 10
  26;                                     !- Field 11

OS:Schedule:Compact,
  {990aab75-4078-4b5a-adfd-1c190de489d8}, !- Handle
  BLDG_EQUIP_SCH,                         !- Name
  {c7bbef7a-a522-4971-91f8-e7e51e46e6a4}, !- Schedule Type Limits Name
  Through: 12/31,                         !- Field 1
  For: Weekday,                           !- Field 2
  Until: 06:00,                           !- Field 3
  0.10,                                   !- Field 4
  Until: 07:00,                           !- Field 5
  0.25,                                   !- Field 6
  Until: 09:00,                           !- Field 7
  0.35,                                   !- Field 8
  Until: 10:00,                           !- Field 9
  0.25,                                   !- Field 10
  Until: 13:00,                           !- Field 11
  0.35,                                   !- Field 12
  Until: 16:00,                           !- Field 13
  0.25,                                   !- Field 14
  Until: 19:00,                           !- Field 15
  0.35,                                   !- Field 16
  Until: 24:00,                           !- Field 17
  0.25,                                   !- Field 18
  For: Saturday,                          !- Field 19
  Until: 06:00,                           !- Field 20
  0.10,                                   !- Field 21
  Until: 07:00,                           !- Field 22
  0.25,                                   !- Field 23
  Until: 09:00,                           !- Field 24
  0.35,                                   !- Field 25
  Until: 10:00,                           !- Field 26
  0.25,                                   !- Field 27
  Until: 13:00,                           !- Field 28
  0.35,                                   !- Field 29
  Until: 16:00,                           !- Field 30
  0.25,                                   !- Field 31
  Until: 19:00,                           !- Field 32
  0.35,                                   !- Field 33
  Until: 24:00,                           !- Field 34
  0.25,                                   !- Field 35
  For: SummerDesignDay,                   !- Field 36
  Until: 24:00,                           !- Field 37
  0.35,                                   !- Field 38
  For: WinterDesignDay,                   !- Field 39
  Until: 24:00,                           !- Field 40
  0.0,                                    !- Field 41
  For: Sunday Holidays AllOtherDays,      !- Field 42
  Until: 06:00,                           !- Field 43
  0.10,                                   !- Field 44
  Until: 07:00,                           !- Field 45
  0.25,                                   !- Field 46
  Until: 09:00,                           !- Field 47
  0.35,                                   !- Field 48
  Until: 10:00,                           !- Field 49
  0.25,                                   !- Field 50
  Until: 13:00,                           !- Field 51
  0.35,                                   !- Field 52
  Until: 16:00,                           !- Field 53
  0.25,                                   !- Field 54
  Until: 19:00,                           !- Field 55
  0.35,                                   !- Field 56
  Until: 24:00,                           !- Field 57
  0.25;                                   !- Field 58

OS:ScheduleTypeLimits,
  {c7bbef7a-a522-4971-91f8-e7e51e46e6a4}, !- Handle
  Fraction,                               !- Name
  0,                                      !- Lower Limit Value {BasedOnField A4}
  1,                                      !- Upper Limit Value {BasedOnField A4}
  CONTINUOUS;                             !- Numeric Type

OS:Material,
  {c38eabe7-60af-4a93-ac9d-d2160f1f63ad}, !- Handle
  1/2IN Gypsum,                           !- Name
  Smooth,                                 !- Roughness
  0.0127,                                 !- Thickness {m}
  0.16,                                   !- Conductivity {W/m-K}
  784.9,                                  !- Density {kg/m3}
  830,                                    !- Specific Heat {J/kg-K}
  0.9,                                    !- Thermal Absorptance
  0.92,                                   !- Solar Absorptance
  0.92;                                   !- Visible Absorptance

OS:Schedule:Compact,
  {32377f8a-f0b9-4680-b9ea-56df523187cf}, !- Handle
  HVACOperationSchd,                      !- Name
  {01ea2890-a230-4fed-8f0e-a5d0f3fc77d2}, !- Schedule Type Limits Name
  Through: 12/31,                         !- Field 1
  For: AllDays,                           !- Field 2
  Until: 01:00,                           !- Field 3
  1.0,                                    !- Field 4
  Until: 05:00,                           !- Field 5
  0.0,                                    !- Field 6
  Until: 24:00,                           !- Field 7
  1.0;                                    !- Field 8

OS:ScheduleTypeLimits,
  {01ea2890-a230-4fed-8f0e-a5d0f3fc77d2}, !- Handle
  On/Off,                                 !- Name
  0,                                      !- Lower Limit Value {BasedOnField A4}
  1,                                      !- Upper Limit Value {BasedOnField A4}
  DISCRETE,                               !- Numeric Type
  Availability;                           !- Unit Type

OS:Meter,
  {11c31f96-a0d1-47df-9a33-94ad5bd2b110}, !- Handle
  InteriorLights:Electricity,             !- Name
  hourly,                                 !- Reporting Frequency
  False,                                  !- Meter File Only
  False;                                  !- Cumulative

OS:Curve:Cubic,
  {660b868e-df7c-446f-8b77-b72b5db3b45b}, !- Handle
  Kitchen_Case:2_SELFCONTAINEDDISPLAYCASEMultiShelfVertical_LatentEnergyMult, !- Name
  0.026526281,                            !- Coefficient1 Constant
  0.001078032,                            !- Coefficient2 x
  -6.02558e-005,                          !- Coefficient3 x**2
  1.23732e-006,                           !- Coefficient4 x**3
  -35,                                    !- Minimum Value of x {BasedOnField A2}
  20;                                     !- Maximum Value of x {BasedOnField A2}

OS:Material,
  {362d3630-6177-45c5-9827-9a91d30c1861}, !- Handle
  Wood Siding,                            !- Name
  MediumSmooth,                           !- Roughness
  0.01,                                   !- Thickness {m}
  0.11,                                   !- Conductivity {W/m-K}
  544.62,                                 !- Density {kg/m3}
  1210,                                   !- Specific Heat {J/kg-K}
  0.9,                                    !- Thermal Absorptance
  0.78,                                   !- Solar Absorptance
  0.78;                                   !- Visible Absorptance

OS:ScheduleTypeLimits,
  {abd71100-0c67-451e-a9d1-8fff974d11a0}, !- Handle
  Humidity,                               !- Name
  10,                                     !- Lower Limit Value {BasedOnField A4}
  90,                                     !- Upper Limit Value {BasedOnField A4}
  CONTINUOUS;                             !- Numeric Type

OS:Schedule:Compact,
  {98cd8526-5641-4779-8609-dddf01f04b70}, !- Handle
  SWHSys1-Loop-Temp-Schedule,             !- Name
  {3bf17666-84eb-4af3-9b26-60f5a90ca89e}, !- Schedule Type Limits Name
  Through: 12/31,                         !- Field 1
  For: AllDays,                           !- Field 2
  Until: 24:00,                           !- Field 3
  60;                                     !- Field 4

OS:Material,
  {461ae611-9539-4b9f-99ca-02563a51ed25}, !- Handle
  Metal Decking,                          !- Name
  MediumSmooth,                           !- Roughness
  0.0015,                                 !- Thickness {m}
  45.006,                                 !- Conductivity {W/m-K}
  7680,                                   !- Density {kg/m3}
  418.4,                                  !- Specific Heat {J/kg-K}
  0.9,                                    !- Thermal Absorptance
  0.7,                                    !- Solar Absorptance
  0.3;                                    !- Visible Absorptance

OS:Curve:Biquadratic,
  {977bdb8a-c4fc-45c3-8322-d1c8a215e432}, !- Handle
  Measured_CoolCStandard10Ton_CapFT,      !- Name
  0.52357,                                !- Coefficient1 Constant
  0.03478,                                !- Coefficient2 x
  0,                                      !- Coefficient3 x**2
  -0.001915,                              !- Coefficient4 y
  -0.00010838,                            !- Coefficient5 y**2
  0,                                      !- Coefficient6 x*y
  11.1,                                   !- Minimum Value of x {BasedOnField A2}
  29.4,                                   !- Maximum Value of x {BasedOnField A2}
  10,                                     !- Minimum Value of y {BasedOnField A3}
  50.3;                                   !- Maximum Value of y {BasedOnField A3}

OS:Surface,
  {37ca3332-792e-4374-a500-cbd94ed94211}, !- Handle
  south-roof,                             !- Name
  RoofCeiling,                            !- Surface Type
  {34253179-f7bc-4320-9834-e5c4b7f35e20}, !- Construction Name
  {e64a593f-c982-405b-925d-249ffe7263bb}, !- Space Name
  Outdoors,                               !- Outside Boundary Condition
  ,                                       !- Outside Boundary Condition Object
  SunExposed,                             !- Sun Exposure
  WindExposed,                            !- Wind Exposure
  ,                                       !- View Factor to Ground
  ,                                       !- Number of Vertices
  11.3044, 3.769, 3.7692,                 !- X,Y,Z Vertex 1 {m}
  0, 0, 0,                                !- X,Y,Z Vertex 2 {m}
  22.6087, 0, 0;                          !- X,Y,Z Vertex 3 {m}

OS:Construction,
  {34253179-f7bc-4320-9834-e5c4b7f35e20}, !- Handle
  Attic Non-res Roof,                     !- Name
  ,                                       !- Surface Rendering Name
  {e856f846-1e71-421b-949c-351b0fa73650}, !- Layer 1
  {461ae611-9539-4b9f-99ca-02563a51ed25}; !- Layer 2

OS:Material,
  {e856f846-1e71-421b-949c-351b0fa73650}, !- Handle
  Roof Membrane,                          !- Name
  VeryRough,                              !- Roughness
  0.0095,                                 !- Thickness {m}
  0.16,                                   !- Conductivity {W/m-K}
  1121.29,                                !- Density {kg/m3}
  1460,                                   !- Specific Heat {J/kg-K}
  0.9,                                    !- Thermal Absorptance
  0.7,                                    !- Solar Absorptance
  0.7;                                    !- Visible Absorptance

OS:ThermalZone,
  {0492bfed-36c3-4ce3-8353-3ed8eef1856c}, !- Handle
  attic Thermal Zone,                     !- Name
  1,                                      !- Multiplier
  ,                                       !- Ceiling Height {m}
  ,                                       !- Volume {m3}
  ,                                       !- Floor Area {m2}
  ,                                       !- Zone Inside Convection Algorithm
  ,                                       !- Zone Outside Convection Algorithm
  ,                                       !- Zone Conditioning Equipment List Name
  {ec51ebfa-07e9-4eb3-b274-32b5df755645}, !- Zone Air Inlet Port List
  {d14cb1e7-1d3b-4179-838f-33722c0f31cd}, !- Zone Air Exhaust Port List
  {3e44f554-113b-476c-ac61-7e7d1e70bc32}, !- Zone Air Node Name
  ,                                       !- Zone Return Air Node Name
  ,                                       !- Primary Daylighting Control Name
  ,                                       !- Fraction of Zone Controlled by Primary Daylighting Control
  ,                                       !- Secondary Daylighting Control Name
  ,                                       !- Fraction of Zone Controlled by Secondary Daylighting Control
  ,                                       !- Illuminance Map Name
  ,                                       !- Group Rendering Name
  ,                                       !- Thermostat Name
  No;                                     !- Use Ideal Air Loads

OS:Node,
  {6707a5dc-cc93-4445-8acd-37190ae4a875}, !- Handle
  {8b66d917-0e3e-4ecb-999d-229978d0d501}, !- Name
  {3e44f554-113b-476c-ac61-7e7d1e70bc32}, !- Inlet Port
  ;                                       !- Outlet Port

OS:Connection,
  {3e44f554-113b-476c-ac61-7e7d1e70bc32}, !- Handle
  {f36ddbb9-6b0e-4ed8-8f2e-80a599c3d7ea}, !- Name
  {0492bfed-36c3-4ce3-8353-3ed8eef1856c}, !- Source Object
  11,                                     !- Outlet Port
  {6707a5dc-cc93-4445-8acd-37190ae4a875}, !- Target Object
  2;                                      !- Inlet Port

OS:PortList,
  {ec51ebfa-07e9-4eb3-b274-32b5df755645}, !- Handle
  {f1e67deb-2a02-4874-ae9f-16cd98083342}, !- Name
  {0492bfed-36c3-4ce3-8353-3ed8eef1856c}; !- HVAC Component

OS:PortList,
  {d14cb1e7-1d3b-4179-838f-33722c0f31cd}, !- Handle
  {ea669fb7-79a4-430f-a655-cf0618945013}, !- Name
  {0492bfed-36c3-4ce3-8353-3ed8eef1856c}; !- HVAC Component

OS:Sizing:Zone,
  {895ed820-d730-427d-b57d-154a57fa8eb6}, !- Handle
  {0492bfed-36c3-4ce3-8353-3ed8eef1856c}, !- Zone or ZoneList Name
  14,                                     !- Zone Cooling Design Supply Air Temperature {C}
  40,                                     !- Zone Heating Design Supply Air Temperature {C}
  0.0085,                                 !- Zone Cooling Design Supply Air Humidity Ratio {kg-H2O/kg-air}
  0.008,                                  !- Zone Heating Design Supply Air Humidity Ratio {kg-H2O/kg-air}
  ,                                       !- Zone Heating Sizing Factor
  ,                                       !- Zone Cooling Sizing Factor
  DesignDay,                              !- Cooling Design Air Flow Method
  ,                                       !- Cooling Design Air Flow Rate {m3/s}
  ,                                       !- Cooling Minimum Air Flow per Zone Floor Area {m3/s-m2}
  ,                                       !- Cooling Minimum Air Flow {m3/s}
  ,                                       !- Cooling Minimum Air Flow Fraction
  DesignDay,                              !- Heating Design Air Flow Method
  ,                                       !- Heating Design Air Flow Rate {m3/s}
  ,                                       !- Heating Maximum Air Flow per Zone Floor Area {m3/s-m2}
  ,                                       !- Heating Maximum Air Flow {m3/s}
  ,                                       !- Heating Maximum Air Flow Fraction
  ,                                       !- Design Zone Air Distribution Effectiveness in Cooling Mode
  ;                                       !- Design Zone Air Distribution Effectiveness in Heating Mode

OS:ZoneHVAC:EquipmentList,
  {01fbcf75-cb80-48b5-969a-b1bd9250419f}, !- Handle
  {eadcf86c-eec5-45ce-b2b2-03631c60c041}, !- Name
  {0492bfed-36c3-4ce3-8353-3ed8eef1856c}; !- Thermal Zone

OS:Space,
  {e64a593f-c982-405b-925d-249ffe7263bb}, !- Handle
  attic,                                  !- Name
  ,                                       !- Space Type Name
  ,                                       !- Default Construction Set Name
  ,                                       !- Default Schedule Set Name
  0,                                      !- Direction of Relative North {deg}
  0,                                      !- X Origin {m}
  0,                                      !- Y Origin {m}
  3.0488,                                 !- Z Origin {m}
  ,                                       !- Building Story Name
  {0492bfed-36c3-4ce3-8353-3ed8eef1856c}, !- Thermal Zone Name
  No;                                     !- Part of Total Floor Area

OS:Curve:Quadratic,
  {19f25051-a56e-4a88-9754-97acd8e7c5b6}, !- Handle
  RACK1_RackCOPfTCurve,                   !- Name
  1.7603,                                 !- Coefficient1 Constant
  -0.0377,                                !- Coefficient2 x
  0.0004,                                 !- Coefficient3 x**2
  10,                                     !- Minimum Value of x {BasedOnField A2}
  35;                                     !- Maximum Value of x {BasedOnField A2}

OS:ThermalZone,
  {69a4e6c0-003f-42fc-834e-1689583eaab6}, !- Handle
  Dining Thermal Zone,                    !- Name
  1,                                      !- Multiplier
  ,                                       !- Ceiling Height {m}
  ,                                       !- Volume {m3}
  ,                                       !- Floor Area {m2}
  ,                                       !- Zone Inside Convection Algorithm
  ,                                       !- Zone Outside Convection Algorithm
  ,                                       !- Zone Conditioning Equipment List Name
  {1c36b652-dddb-4a13-a514-9b5c0e92dd4e}, !- Zone Air Inlet Port List
  {eb05df95-5372-4989-baad-c6567370d37f}, !- Zone Air Exhaust Port List
  {d6d971cb-f51a-413e-957e-9198e5cefbb8}, !- Zone Air Node Name
  ,                                       !- Zone Return Air Node Name
  ,                                       !- Primary Daylighting Control Name
  ,                                       !- Fraction of Zone Controlled by Primary Daylighting Control
  ,                                       !- Secondary Daylighting Control Name