
OS:Version,
  {b37cf6fe-9437-4828-b7b1-cc98241d4ad0}, !- Handle
  1.3.0;                                  !- Version Identifier

OS:Site,
  {38a06f27-02ca-4efb-a77b-4c9f377feb45}, !- Handle
  USA IL-CHICAGO-OHARE,                   !- Name
  41.77,                                  !- Latitude {deg}
  -87.75,                                 !- Longitude {deg}
  -6,                                     !- Time Zone {hr}
  190,                                    !- Elevation {m}
  City;                                   !- Terrain

OS:SimulationControl,
  {ab12bcab-9631-4f3b-8ab9-6da674666302}, !- Handle
  Yes,                                    !- Do Zone Sizing Calculation
  Yes,                                    !- Do System Sizing Calculation
  Yes,                                    !- Do Plant Sizing Calculation
  No,                                     !- Run Simulation for Sizing Periods
  Yes,                                    !- Run Simulation for Weather File Run Periods
  0.04,                                   !- Loads Convergence Tolerance Value
  0.2,                                    !- Temperature Convergence Tolerance Value {deltaC}
  FullInteriorAndExterior,                !- Solar Distribution
  25,                                     !- Maximum Number of Warmup Days
  6;                                      !- Minimum Number of Warmup Days

OS:Surface,
  {4f108268-a5a2-44e4-8cb4-d87cfae08a04}, !- Handle
  PatRoom2_Flr_4_Wall_North,              !- Name
  Wall,                                   !- Surface Type
  {63306ff6-1e8c-4f15-b86b-c8cf73e9618c}, !- Construction Name
  {8b79dee4-116a-44ff-83b0-cd58a703acef}, !- Space Name
  Adiabatic,                              !- Outside Boundary Condition
  ,                                       !- Outside Boundary Condition Object
  NoSun,                                  !- Sun Exposure
  NoWind,                                 !- Wind Exposure
  ,                                       !- View Factor to Ground
  ,                                       !- Number of Vertices
  70.104, 4.572, 17.0732,                 !- X,Y,Z Vertex 1 {m}
  70.104, 4.572, 12.8049,                 !- X,Y,Z Vertex 2 {m}
  62.484, 4.572, 12.8049,                 !- X,Y,Z Vertex 3 {m}
  62.484, 4.572, 17.0732;                 !- X,Y,Z Vertex 4 {m}

OS:Construction,
  {63306ff6-1e8c-4f15-b86b-c8cf73e9618c}, !- Handle
  int-walls,                              !- Name
  ,                                       !- Surface Rendering Name
  {2ef3f050-99e8-495f-bee6-c8403758f7d5}, !- Layer 1
  {2ef3f050-99e8-495f-bee6-c8403758f7d5}; !- Layer 2

OS:Material,
  {2ef3f050-99e8-495f-bee6-c8403758f7d5}, !- Handle
  1/2IN Gypsum,                           !- Name
  Smooth,                                 !- Roughness
  0.0127,                                 !- Thickness {m}
  0.16,                                   !- Conductivity {W/m-K}
  784.9,                                  !- Density {kg/m3}
  830,                                    !- Specific Heat {J/kg-K}
  0.9,                                    !- Thermal Absorptance
  0.92,                                   !- Solar Absorptance
  0.92;                                   !- Visible Absorptance

OS:ThermalZone,
  {7803adc0-bc97-4063-8839-69cfa5c4426e}, !- Handle
  PatRoom2_Flr_4 Thermal Zone,            !- Name
  1,                                      !- Multiplier
  ,                                       !- Ceiling Height {m}
  ,                                       !- Volume {m3}
  ,                                       !- Floor Area {m2}
  ,                                       !- Zone Inside Convection Algorithm
  ,                                       !- Zone Outside Convection Algorithm
  ,                                       !- Zone Conditioning Equipment List Name
  {36cad588-4b89-42c4-a8c9-5546b2d639c5}, !- Zone Air Inlet Port List
  {8cee9c08-1ef2-4eb0-a523-acdeb21a5c61}, !- Zone Air Exhaust Port List
  {df871887-7c34-4af4-9f31-2bc467a0b834}, !- Zone Air Node Name
  ,                                       !- Zone Return Air Node Name
  ,                                       !- Primary Daylighting Control Name
  ,                                       !- Fraction of Zone Controlled by Primary Daylighting Control
  ,                                       !- Secondary Daylighting Control Name
  ,                                       !- Fraction of Zone Controlled by Secondary Daylighting Control
  ,                                       !- Illuminance Map Name
  ,                                       !- Group Rendering Name
  {598b9f2a-8901-4200-bf49-160c7bc2d113}, !- Thermostat Name
  No;                                     !- Use Ideal Air Loads

OS:Node,
  {b13b0e2b-caa6-408f-a95e-f455810e8673}, !- Handle
  {583409d4-0fb6-4d88-aba2-c1686f72f1a4}, !- Name
  {df871887-7c34-4af4-9f31-2bc467a0b834}, !- Inlet Port
  ;                                       !- Outlet Port

OS:Connection,
  {df871887-7c34-4af4-9f31-2bc467a0b834}, !- Handle
  {8e5b095f-fe6c-4cac-8cc1-a9c05f9c4609}, !- Name
  {7803adc0-bc97-4063-8839-69cfa5c4426e}, !- Source Object
  11,                                     !- Outlet Port
  {b13b0e2b-caa6-408f-a95e-f455810e8673}, !- Target Object
  2;                                      !- Inlet Port

OS:PortList,
  {36cad588-4b89-42c4-a8c9-5546b2d639c5}, !- Handle
  {1a88a1e8-2f66-4e8d-9b4a-0225199ee180}, !- Name
  {7803adc0-bc97-4063-8839-69cfa5c4426e}; !- HVAC Component

OS:PortList,
  {8cee9c08-1ef2-4eb0-a523-acdeb21a5c61}, !- Handle
  {8f2c2a26-f9c5-4f39-8f4e-774ad7e4e8b0}, !- Name
  {7803adc0-bc97-4063-8839-69cfa5c4426e}; !- HVAC Component

OS:Sizing:Zone,
  {dc99317b-ea59-43c5-b11b-b9fb834a70f3}, !- Handle
  {7803adc0-bc97-4063-8839-69cfa5c4426e}, !- Zone or ZoneList Name
  14,                                     !- Zone Cooling Design Supply Air Temperature {C}
  40,                                     !- Zone Heating Design Supply Air Temperature {C}
  0.0085,                                 !- Zone Cooling Design Supply Air Humidity Ratio {kg-H2O/kg-air}
  0.008,                                  !- Zone Heating Design Supply Air Humidity Ratio {kg-H2O/kg-air}
  ,                                       !- Zone Heating Sizing Factor
  ,                                       !- Zone Cooling Sizing Factor
  DesignDay,                              !- Cooling Design Air Flow Method
  ,                                       !- Cooling Design Air Flow Rate {m3/s}
  ,                                       !- Cooling Minimum Air Flow per Zone Floor Area {m3/s-m2}
  ,                                       !- Cooling Minimum Air Flow {m3/s}
  ,                                       !- Cooling Minimum Air Flow Fraction
  DesignDay,                              !- Heating Design Air Flow Method
  ,                                       !- Heating Design Air Flow Rate {m3/s}
  ,                                       !- Heating Maximum Air Flow per Zone Floor Area {m3/s-m2}
  ,                                       !- Heating Maximum Air Flow {m3/s}
  ,                                       !- Heating Maximum Air Flow Fraction
  ,                                       !- Design Zone Air Distribution Effectiveness in Cooling Mode
  ;                                       !- Design Zone Air Distribution Effectiveness in Heating Mode

OS:ZoneHVAC:EquipmentList,
  {07cfdb90-3450-4d91-8047-b911b0605e3a}, !- Handle
  {0db52803-a16b-43ea-a452-9d203f57916c}, !- Name
  {7803adc0-bc97-4063-8839-69cfa5c4426e}; !- Thermal Zone

OS:Space,
  {8b79dee4-116a-44ff-83b0-cd58a703acef}, !- Handle
  PatRoom2_Flr_4,                         !- Name
  ,                                       !- Space Type Name
  ,                                       !- Default Construction Set Name
  ,                                       !- Default Schedule Set Name
  0,                                      !- Direction of Relative North {deg}
  0,                                      !- X Origin {m}
  0,                                      !- Y Origin {m}
  0,                                      !- Z Origin {m}
  ,                                       !- Building Story Name
  {7803adc0-bc97-4063-8839-69cfa5c4426e}, !- Thermal Zone Name
  Yes;                                    !- Part of Total Floor Area

OS:ThermostatSetpoint:DualSetpoint,
  {598b9f2a-8901-4200-bf49-160c7bc2d113}, !- Handle
  {68b19fc3-4dc9-45e6-8d95-20f087ce85e4}, !- Name
  {ede5a361-21c3-44f4-ba04-a02602c20bf2}, !- Heating Setpoint Temperature Schedule Name
  {bf17c99d-f0b2-4e4b-b2aa-cca320c73843}; !- Cooling Setpoint Temperature Schedule Name

OS:Schedule:Compact,
  {ede5a361-21c3-44f4-ba04-a02602c20bf2}, !- Handle
  CRITICAL_HTGSETP_SCH,                   !- Name
  {1096ef30-452f-42b1-9904-85ddfd36eafc}, !- Schedule Type Limits Name
  Through: 12/31,                         !- Field 1
  For: ALLDays,                           !- Field 2
  Until: 24:00,                           !- Field 3
  21.1;                                   !- Field 4

OS:ScheduleTypeLimits,
  {1096ef30-452f-42b1-9904-85ddfd36eafc}, !- Handle
  Temperature,                            !- Name
  -60,                                    !- Lower Limit Value {BasedOnField A4}
  200,                                    !- Upper Limit Value {BasedOnField A4}
  CONTINUOUS,                             !- Numeric Type
  Temperature;                            !- Unit Type

OS:Schedule:Compact,
  {bf17c99d-f0b2-4e4b-b2aa-cca320c73843}, !- Handle
  CRITICAL_CLGSETP_SCH,                   !- Name
  {1096ef30-452f-42b1-9904-85ddfd36eafc}, !- Schedule Type Limits Name
  Through: 12/31,                         !- Field 1
  For: AllDays,                           !- Field 2
  Until: 24:00,                           !- Field 3
  22.2;                                   !- Field 4

OS:SpaceInfiltration:DesignFlowRate,
  {fe9de9d6-b169-4855-bec0-9e182ba6d566}, !- Handle
  Corridor_Flr_2_Infiltration,            !- Name
  {7996d32c-55fd-49e9-9325-cc4fa8f4ccc3}, !- Space or SpaceType Name
  {a0be3995-0dc8-4648-abb9-bded5209fe13}, !- Schedule Name
  Flow/ExteriorWallArea,                  !- Design Flow Rate Calculation Method
  ,                                       !- Design Flow Rate {m3/s}
  ,                                       !- Flow per Space Floor Area {m3/s-m2}
  0.000302,                               !- Flow per Exterior Surface Area {m3/s-m2}
  ,                                       !- Air Changes per Hour {1/hr}
  1,                                      !- Constant Term Coefficient
  0,                                      !- Temperature Term Coefficient
  0,                                      !- Velocity Term Coefficient
  0;                                      !- Velocity Squared Term Coefficient

OS:ThermalZone,
  {2ff80e68-c096-425e-837a-a88d80ef174e}, !- Handle
  Corridor_Flr_2 Thermal Zone,            !- Name
  1,                                      !- Multiplier
  ,                                       !- Ceiling Height {m}
  ,                                       !- Volume {m3}
  ,                                       !- Floor Area {m2}
  ,                                       !- Zone Inside Convection Algorithm
  ,                                       !- Zone Outside Convection Algorithm
  ,                                       !- Zone Conditioning Equipment List Name
  {6aded80b-0658-4219-a86c-5b2afdac75ec}, !- Zone Air Inlet Port List
  {c9e54fc4-f38f-4c7f-8106-fda3d5357c6f}, !- Zone Air Exhaust Port List
  {a80a5bc4-58be-43b8-8d5c-0b869cac9003}, !- Zone Air Node Name
  ,                                       !- Zone Return Air Node Name
  ,                                       !- Primary Daylighting Control Name
  ,                                       !- Fraction of Zone Controlled by Primary Daylighting Control
  ,                                       !- Secondary Daylighting Control Name
  ,                                       !- Fraction of Zone Controlled by Secondary Daylighting Control
  ,                                       !- Illuminance Map Name
  ,                                       !- Group Rendering Name
  {d43875ac-2c70-4b0a-bdec-e4466ff802e4}, !- Thermostat Name
  No;                                     !- Use Ideal Air Loads

OS:Node,
  {c6aace96-94ac-4f6d-bf89-924b02fcc70d}, !- Handle
  {6c9e2a16-b216-4a3c-81e1-71bea19e8bb6}, !- Name
  {a80a5bc4-58be-43b8-8d5c-0b869cac9003}, !- Inlet Port
  ;                                       !- Outlet Port

OS:Connection,
  {a80a5bc4-58be-43b8-8d5c-0b869cac9003}, !- Handle
  {17a49220-dcde-43aa-b5d8-20ca97e189e4}, !- Name
  {2ff80e68-c096-425e-837a-a88d80ef174e}, !- Source Object
  11,                                     !- Outlet Port
  {c6aace96-94ac-4f6d-bf89-924b02fcc70d}, !- Target Object
  2;                                      !- Inlet Port

OS:PortList,
  {6aded80b-0658-4219-a86c-5b2afdac75ec}, !- Handle
  {19d8a47f-3bad-4a18-9029-1ba55220881a}, !- Name
  {2ff80e68-c096-425e-837a-a88d80ef174e}; !- HVAC Component

OS:PortList,
  {c9e54fc4-f38f-4c7f-8106-fda3d5357c6f}, !- Handle
  {28ce6758-d58a-4c09-a8b9-b5a0d05692fd}, !- Name
  {2ff80e68-c096-425e-837a-a88d80ef174e}; !- HVAC Component

OS:Sizing:Zone,
  {3f6c52d2-fc2e-488a-8631-b9731ea73b2b}, !- Handle
  {2ff80e68-c096-425e-837a-a88d80ef174e}, !- Zone or ZoneList Name
  14,                                     !- Zone Cooling Design Supply Air Temperature {C}
  40,                                     !- Zone Heating Design Supply Air Temperature {C}
  0.0085,                                 !- Zone Cooling Design Supply Air Humidity Ratio {kg-H2O/kg-air}
  0.008,                                  !- Zone Heating Design Supply Air Humidity Ratio {kg-H2O/kg-air}
  ,                                       !- Zone Heating Sizing Factor
  ,                                       !- Zone Cooling Sizing Factor
  DesignDay,                              !- Cooling Design Air Flow Method
  ,                                       !- Cooling Design Air Flow Rate {m3/s}
  ,                                       !- Cooling Minimum Air Flow per Zone Floor Area {m3/s-m2}
  ,                                       !- Cooling Minimum Air Flow {m3/s}
  ,                                       !- Cooling Minimum Air Flow Fraction
  DesignDay,                              !- Heating Design Air Flow Method
  ,                                       !- Heating Design Air Flow Rate {m3/s}
  ,                                       !- Heating Maximum Air Flow per Zone Floor Area {m3/s-m2}
  ,                                       !- Heating Maximum Air Flow {m3/s}
  ,                                       !- Heating Maximum Air Flow Fraction
  ,                                       !- Design Zone Air Distribution Effectiveness in Cooling Mode
  ;                                       !- Design Zone Air Distribution Effectiveness in Heating Mode

OS:ZoneHVAC:EquipmentList,
  {f92b1fa4-4fed-442c-90c5-d7c54b5ec425}, !- Handle
  {b99c379d-88ab-46ce-a80d-530a725149ef}, !- Name
  {2ff80e68-c096-425e-837a-a88d80ef174e}; !- Thermal Zone

OS:Space,
  {7996d32c-55fd-49e9-9325-cc4fa8f4ccc3}, !- Handle
  Corridor_Flr_2,                         !- Name
  ,                                       !- Space Type Name
  ,                                       !- Default Construction Set Name
  ,                                       !- Default Schedule Set Name
  0,                                      !- Direction of Relative North {deg}
  0,                                      !- X Origin {m}
  0,                                      !- Y Origin {m}
  0,                                      !- Z Origin {m}
  ,                                       !- Building Story Name
  {2ff80e68-c096-425e-837a-a88d80ef174e}, !- Thermal Zone Name
  Yes;                                    !- Part of Total Floor Area

OS:ThermostatSetpoint:DualSetpoint,
  {d43875ac-2c70-4b0a-bdec-e4466ff802e4}, !- Handle
  {4970f146-d01b-4dfe-babd-205b2bc1cfd4}, !- Name
  {d615cdd2-1979-48c6-9283-1202b0e13956}, !- Heating Setpoint Temperature Schedule Name
  {eed7af05-8e8b-49e7-b2ac-bba722ae74a2}; !- Cooling Setpoint Temperature Schedule Name

OS:Schedule:Compact,
  {d615cdd2-1979-48c6-9283-1202b0e13956}, !- Handle
  ADMIN_HTGSETP_SCH,                      !- Name
  {1096ef30-452f-42b1-9904-85ddfd36eafc}, !- Schedule Type Limits Name
  Through: 12/31,                         !- Field 1
  For: Weekdays,                          !- Field 2
  Until: 05:00,                           !- Field 3
  18.3,                                   !- Field 4
  Until: 18:00,                           !- Field 5
  21.1,                                   !- Field 6
  Until: 24:00,                           !- Field 7
  18.3,                                   !- Field 8
  For: SummerDesignDay,                   !- Field 9
  Until: 05:00,                           !- Field 10
  18.3,                                   !- Field 11
  Until: 18:00,                           !- Field 12
  21.1,                                   !- Field 13
  Until: 24:00,                           !- Field 14
  18.3,                                   !- Field 15
  For: WinterDesignDay,                   !- Field 16
  Until: 07:00,                           !- Field 17
  18.3,                                   !- Field 18
  Until: 15:00,                           !- Field 19
  21.1,                                   !- Field 20
  Until: 24:00,                           !- Field 21
  18.3,                                   !- Field 22
  For: Saturdays,                         !- Field 23
  Until: 07:00,                           !- Field 24
  18.3,                                   !- Field 25
  Until: 15:00,                           !- Field 26
  21.1,                                   !- Field 27
  Until: 24:00,                           !- Field 28
  18.3,                                   !- Field 29
  For: AllOtherDays,                      !- Field 30
  Until: 24:00,                           !- Field 31
  18.3;                                   !- Field 32

OS:Schedule:Compact,
  {eed7af05-8e8b-49e7-b2ac-bba722ae74a2}, !- Handle
  ADMIN_CLGSETP_SCH,                      !- Name
  {1096ef30-452f-42b1-9904-85ddfd36eafc}, !- Schedule Type Limits Name
  Through: 12/31,                         !- Field 1
  For: Weekdays,                          !- Field 2
  Until: 05:00,                           !- Field 3
  25.0,                                   !- Field 4
  Until: 18:00,                           !- Field 5
  22.2,                                   !- Field 6
  Until: 24:00,                           !- Field 7
  25.0,                                   !- Field 8
  For: SummerDesignDay,                   !- Field 9
  Until: 05:00,                           !- Field 10
  25.0,                                   !- Field 11
  Until: 18:00,                           !- Field 12
  22.2,                                   !- Field 13
  Until: 24:00,                           !- Field 14
  25.0,                                   !- Field 15
  For: WinterDesignDay,                   !- Field 16
  Until: 07:00,                           !- Field 17
  25.0,                                   !- Field 18
  Until: 15:00,                           !- Field 19
  22.2,                                   !- Field 20
  Until: 24:00,                           !- Field 21
  25.0,                                   !- Field 22
  For: Saturdays,                         !- Field 23
  Until: 07:00,                           !- Field 24
  25.0,                                   !- Field 25
  Until: 15:00,                           !- Field 26
  22.2,                                   !- Field 27
  Until: 24:00,                           !- Field 28
  25.0,                                   !- Field 29
  For: AllOtherDays,                      !- Field 30
  Until: 24:00,                           !- Field 31
  25.0;                                   !- Field 32

OS:Schedule:Compact,
  {a0be3995-0dc8-4648-abb9-bded5209fe13}, !- Handle
  INFIL_QUARTER_ON_SCH,                   !- Name
  {beb6d1c5-5731-42a8-b203-31b0c4b9a916}, !- Schedule Type Limits Name
  Through: 12/31,                         !- Field 1
  For: Weekdays,                          !- Field 2
  Until: 24:00,                           !- Field 3
  0.25,                                   !- Field 4
  For: Saturday,                          !- Field 5
  Until: 24:00,                           !- Field 6
  0.25,                                   !- Field 7
  For: SummerDesignDay WinterDesignDay,   !- Field 8
  Until: 24:00,                           !- Field 9
  1.0,                                    !- Field 10
  For: AllOtherDays,                      !- Field 11
  Until: 24:00,                           !- Field 12
  0.25;                                   !- Field 13

OS:ScheduleTypeLimits,
  {beb6d1c5-5731-42a8-b203-31b0c4b9a916}, !- Handle
  Fraction,                               !- Name
  0,                                      !- Lower Limit Value {BasedOnField A4}
  1,                                      !- Upper Limit Value {BasedOnField A4}
  CONTINUOUS;                             !- Numeric Type

OS:ThermostatSetpoint:DualSetpoint,
  {88e6eb6e-1e4d-4b44-b8b1-c9a63d5f3e07}, !- Handle
  {3b002761-3ad7-449a-a97a-ec8f7ca5921f}, !- Name
  {ede5a361-21c3-44f4-ba04-a02602c20bf2}, !- Heating Setpoint Temperature Schedule Name
  {bf17c99d-f0b2-4e4b-b2aa-cca320c73843}; !- Cooling Setpoint Temperature Schedule Name

OS:Surface,
  {9ee74bfb-72db-4046-bafe-1e078bff0e06}, !- Handle
  PatRoom7_Mult10_Flr_3_Wall_East,        !- Name
  Wall,                                   !- Surface Type
  {63306ff6-1e8c-4f15-b86b-c8cf73e9618c}, !- Construction Name
  {7418849a-000d-4794-89ae-52296e2aed51}, !- Space Name
  Adiabatic,                              !- Outside Boundary Condition
  ,                                       !- Outside Boundary Condition Object
  NoSun,                                  !- Sun Exposure
  NoWind,                                 !- Wind Exposure
  ,                                       !- View Factor to Ground
  ,                                       !- Number of Vertices
  4.572, 4.572, 12.8049,                  !- X,Y,Z Vertex 1 {m}
  4.572, 4.572, 8.5366,                   !- X,Y,Z Vertex 2 {m}
  4.572, 8.992, 8.5366,                   !- X,Y,Z Vertex 3 {m}
  4.572, 8.992, 12.8049;                  !- X,Y,Z Vertex 4 {m}

OS:ThermalZone,
  {b8721ca6-77c1-4520-86ac-7c8d099e26a1}, !- Handle
  PatRoom7_Mult10_Flr_3 Thermal Zone,     !- Name
  10,                                     !- Multiplier
  ,                                       !- Ceiling Height {m}
  ,                                       !- Volume {m3}
  ,                                       !- Floor Area {m2}
  ,                                       !- Zone Inside Convection Algorithm
  ,                                       !- Zone Outside Convection Algorithm
  ,                                       !- Zone Conditioning Equipment List Name
  {322cf8f1-ea37-4c5a-bfa8-6e7e8cc7eead}, !- Zone Air Inlet Port List
  {a42ea104-6d2b-483f-92a4-b7c8261c08ae}, !- Zone Air Exhaust Port List
  {ee8d541e-e5f6-4477-8d81-e04248c50101}, !- Zone Air Node Name
  ,                                       !- Zone Return Air Node Name
  ,                                       !- Primary Daylighting Control Name
  ,                                       !- Fraction of Zone Controlled by Primary Daylighting Control
  ,                                       !- Secondary Daylighting Control Name
  ,                                       !- Fraction of Zone Controlled by Secondary Daylighting Control
  ,                                       !- Illuminance Map Name
  ,                                       !- Group Rendering Name
  {88e6eb6e-1e4d-4b44-b8b1-c9a63d5f3e07}, !- Thermostat Name
  No;                                     !- Use Ideal Air Loads

OS:Node,
  {1b0d7820-26e5-44d7-b536-18a3213ec7fb}, !- Handle
  {423f2120-5310-483e-a4cd-fcc614b729b2}, !- Name
  {ee8d541e-e5f6-4477-8d81-e04248c50101}, !- Inlet Port
  ;                                       !- Outlet Port

OS:Connection,
  {ee8d541e-e5f6-4477-8d81-e04248c50101}, !- Handle
  {790c62fc-a14e-47c5-ace3-f9cb06bc6bdf}, !- Name
  {b8721ca6-77c1-4520-86ac-7c8d099e26a1}, !- Source Object
  11,                                     !- Outlet Port
  {1b0d7820-26e5-44d7-b536-18a3213ec7fb}, !- Target Object
  2;                                      !- Inlet Port

OS:PortList,
  {322cf8f1-ea37-4c5a-bfa8-6e7e8cc7eead}, !- Handle
  {567e9b0a-b844-46a2-a29c-1b2c02d804a9}, !- Name
  {b8721ca6-77c1-4520-86ac-7c8d099e26a1}; !- HVAC Component

OS:PortList,
  {a42ea104-6d2b-483f-92a4-b7c8261c08ae}, !- Handle
  {2e16daf7-7b6f-483a-99c3-7588c14994d1}, !- Name
  {b8721ca6-77c1-4520-86ac-7c8d099e26a1}; !- HVAC Component

OS:Sizing:Zone,
  {24b6377d-8dbe-474f-be2f-133533440ed3}, !- Handle
  {b8721ca6-77c1-4520-86ac-7c8d099e26a1}, !- Zone or ZoneList Name
  14,                                     !- Zone Cooling Design Supply Air Temperature {C}
  40,                                     !- Zone Heating Design Supply Air Temperature {C}
  0.0085,                                 !- Zone Cooling Design Supply Air Humidity Ratio {kg-H2O/kg-air}
  0.008,                                  !- Zone Heating Design Supply Air Humidity Ratio {kg-H2O/kg-air}
  ,                                       !- Zone Heating Sizing Factor
  ,                                       !- Zone Cooling Sizing Factor
  DesignDay,                              !- Cooling Design Air Flow Method
  ,                                       !- Cooling Design Air Flow Rate {m3/s}
  ,                                       !- Cooling Minimum Air Flow per Zone Floor Area {m3/s-m2}
  ,                                       !- Cooling Minimum Air Flow {m3/s}
  ,                                       !- Cooling Minimum Air Flow Fraction
  DesignDay,                              !- Heating Design Air Flow Method
  ,                                       !- Heating Design Air Flow Rate {m3/s}
  ,                                       !- Heating Maximum Air Flow per Zone Floor Area {m3/s-m2}
  ,                                       !- Heating Maximum Air Flow {m3/s}
  ,                                       !- Heating Maximum Air Flow Fraction
  ,                                       !- Design Zone Air Distribution Effectiveness in Cooling Mode
  ;                                       !- Design Zone Air Distribution Effectiveness in Heating Mode

OS:ZoneHVAC:EquipmentList,
  {2b0724a9-6d45-4503-bd09-734ce5068ff5}, !- Handle
  {0a64864e-c82d-461b-aced-37028e895797}, !- Name
  {b8721ca6-77c1-4520-86ac-7c8d099e26a1}; !- Thermal Zone

OS:Space,
  {7418849a-000d-4794-89ae-52296e2aed51}, !- Handle
  PatRoom7_Mult10_Flr_3,                  !- Name
  ,                                       !- Space Type Name
  ,                                       !- Default Construction Set Name
  ,                                       !- Default Schedule Set Name
  0,                                      !- Direction of Relative North {deg}
  0,                                      !- X Origin {m}
  0,                                      !- Y Origin {m}
  0,                                      !- Z Origin {m}
  ,                                       !- Building Story Name
  {b8721ca6-77c1-4520-86ac-7c8d099e26a1}, !- Thermal Zone Name
  Yes;                                    !- Part of Total Floor Area

OS:Surface,
  {314c0b47-098b-44a4-87f3-9827f7842faf}, !- Handle
  OR3_Flr_2_Wall_West,                    !- Name
  Wall,                                   !- Surface Type
  {63306ff6-1e8c-4f15-b86b-c8cf73e9618c}, !- Construction Name
  {631ee843-0d2c-4b4c-af42-2dfe95076f96}, !- Space Name
  Adiabatic,                              !- Outside Boundary Condition
  ,                                       !- Outside Boundary Condition Object
  NoSun,                                  !- Sun Exposure
  NoWind,                                 !- Wind Exposure
  ,                                       !- View Factor to Ground
  ,                                       !- Number of Vertices
  39.624, 53.34, 8.5366,                  !- X,Y,Z Vertex 1 {m}
  39.624, 53.34, 4.2683,                  !- X,Y,Z Vertex 2 {m}
  39.624, 47.244, 4.2683,                 !- X,Y,Z Vertex 3 {m}
  39.624, 47.244, 8.5366;                 !- X,Y,Z Vertex 4 {m}

OS:ThermalZone,
  {9de9a2ca-2ca5-46b3-84ed-d1d459638a4b}, !- Handle
  OR3_Flr_2 Thermal Zone,                 !- Name
  1,                                      !- Multiplier
  ,                                       !- Ceiling Height {m}
  ,                                       !- Volume {m3}
  ,                                       !- Floor Area {m2}
  ,                                       !- Zone Inside Convection Algorithm
  ,                                       !- Zone Outside Convection Algorithm
  ,                                       !- Zone Conditioning Equipment List Name
  {3249b4ea-0b17-467e-9ceb-af3d1e8d47a4}, !- Zone Air Inlet Port List
  {1ef22783-2e6c-42e4-9036-e4f50d3c92e6}, !- Zone Air Exhaust Port List
  {77a57ae6-dd7d-425f-b091-259da47fe1f9}, !- Zone Air Node Name
  ,                                       !- Zone Return Air Node Name
  ,                                       !- Primary Daylighting Control Name
  ,                                       !- Fraction of Zone Controlled by Primary Daylighting Control
  ,                                       !- Secondary Daylighting Control Name
  ,                                       !- Fraction of Zone Controlled by Secondary Daylighting Control
  ,                                       !- Illuminance Map Name
  ,                                       !- Group Rendering Name