
OS:Version,
  {1e1ab590-4a8c-42fa-94fe-1905fc1a0b49}, !- Handle
  1.3.0;                                  !- Version Identifier

OS:Site,
  {74b42627-4179-4975-8994-7358647c19ce}, !- Handle
  USA IL-CHICAGO-OHARE,                   !- Name
  41.77,                                  !- Latitude {deg}
  -87.75,                                 !- Longitude {deg}
  -6,                                     !- Time Zone {hr}
  190,                                    !- Elevation {m}
  City;                                   !- Terrain

OS:SimulationControl,
  {f4a9ea6d-3965-46c8-bc0e-4c24444311bb}, !- Handle
  Yes,                                    !- Do Zone Sizing Calculation
  Yes,                                    !- Do System Sizing Calculation
  Yes,                                    !- Do Plant Sizing Calculation
  No,                                     !- Run Simulation for Sizing Periods
  Yes,                                    !- Run Simulation for Weather File Run Periods
  0.04,                                   !- Loads Convergence Tolerance Value
  0.2,                                    !- Temperature Convergence Tolerance Value {deltaC}
  FullInteriorAndExterior,                !- Solar Distribution
  25,                                     !- Maximum Number of Warmup Days
  6;                                      !- Minimum Number of Warmup Days

OS:Surface,
  {0a89814b-6ad8-4da5-a7c7-ce817fb60819}, !- Handle
  Corridor_Flr_3_Ceiling_2,               !- Name
  RoofCeiling,                            !- Surface Type
  {17ea613b-e997-4114-913b-5f9f18043d3d}, !- Construction Name
  {b7fc9807-74cf-43fd-8b5f-48b090cd0fb8}, !- Space Name
  Adiabatic,                              !- Outside Boundary Condition
  ,                                       !- Outside Boundary Condition Object
  NoSun,                                  !- Sun Exposure
  NoWind,                                 !- Wind Exposure
  ,                                       !- View Factor to Ground
  ,                                       !- Number of Vertices
  76.2, 12.497, 10.056,                   !- X,Y,Z Vertex 1 {m}
  76.2, 16.154, 10.056,                   !- X,Y,Z Vertex 2 {m}
  10.363, 16.154, 10.056,                 !- X,Y,Z Vertex 3 {m}
  10.363, 12.497, 10.056;                 !- X,Y,Z Vertex 4 {m}

OS:Construction,
  {17ea613b-e997-4114-913b-5f9f18043d3d}, !- Handle
  INT-FLOOR-UNDERSIDE,                    !- Name
  ,                                       !- Surface Rendering Name
  {ae139c95-2491-410b-a3c8-2032944534c9}, !- Layer 1
  {fd1865a2-4011-4810-9200-b0f891de2e50}; !- Layer 2

OS:Material:NoMass,
  {ae139c95-2491-410b-a3c8-2032944534c9}, !- Handle
  CP02 CARPET PAD,                        !- Name
  VeryRough,                              !- Roughness
  0.2165,                                 !- Thermal Resistance {m2-K/W}
  0.9,                                    !- Thermal Absorptance
  0.7,                                    !- Solar Absorptance
  0.8;                                    !- Visible Absorptance

OS:Material,
  {fd1865a2-4011-4810-9200-b0f891de2e50}, !- Handle
  MAT-CC05 4 HW CONCRETE,                 !- Name
  Rough,                                  !- Roughness
  0.1016,                                 !- Thickness {m}
  1.311,                                  !- Conductivity {W/m-K}
  2240,                                   !- Density {kg/m3}
  836.8,                                  !- Specific Heat {J/kg-K}
  0.9,                                    !- Thermal Absorptance
  0.7,                                    !- Solar Absorptance
  0.7;                                    !- Visible Absorptance

OS:ThermalZone,
  {bf9448d9-fb6a-4866-a031-644ea1491edd}, !- Handle
  Corridor_Flr_3 Thermal Zone,            !- Name
  4,                                      !- Multiplier
  ,                                       !- Ceiling Height {m}
  ,                                       !- Volume {m3}
  ,                                       !- Floor Area {m2}
  ,                                       !- Zone Inside Convection Algorithm
  ,                                       !- Zone Outside Convection Algorithm
  ,                                       !- Zone Conditioning Equipment List Name
  {1c407b64-dbcd-4977-a274-2442e3a2ec57}, !- Zone Air Inlet Port List
  {96e966bc-c569-401d-8e1b-ca2b4b0652da}, !- Zone Air Exhaust Port List
  {18618e25-7848-479f-a9ef-85fbc9384544}, !- Zone Air Node Name
  ,                                       !- Zone Return Air Node Name
  ,                                       !- Primary Daylighting Control Name
  ,                                       !- Fraction of Zone Controlled by Primary Daylighting Control
  ,                                       !- Secondary Daylighting Control Name
  ,                                       !- Fraction of Zone Controlled by Secondary Daylighting Control
  ,                                       !- Illuminance Map Name
  ,                                       !- Group Rendering Name
  {7ddd3d2e-f530-4ca2-a704-5b50398cc2a1}, !- Thermostat Name
  No;                                     !- Use Ideal Air Loads

OS:Node,
  {6ac534d3-c079-4006-9028-adacb9598cb4}, !- Handle
  {98c01032-5fc9-4369-8e49-8e8505d89de8}, !- Name
  {18618e25-7848-479f-a9ef-85fbc9384544}, !- Inlet Port
  ;                                       !- Outlet Port

OS:Connection,
  {18618e25-7848-479f-a9ef-85fbc9384544}, !- Handle
  {d0577666-a776-4c2e-b7da-ad53a736a225}, !- Name
  {bf9448d9-fb6a-4866-a031-644ea1491edd}, !- Source Object
  11,                                     !- Outlet Port
  {6ac534d3-c079-4006-9028-adacb9598cb4}, !- Target Object
  2;                                      !- Inlet Port

OS:PortList,
  {1c407b64-dbcd-4977-a274-2442e3a2ec57}, !- Handle
  {27f81dc5-d1ad-4241-863a-6156c75500fe}, !- Name
  {bf9448d9-fb6a-4866-a031-644ea1491edd}; !- HVAC Component

OS:PortList,
  {96e966bc-c569-401d-8e1b-ca2b4b0652da}, !- Handle
  {bac7fc13-46d7-4d8c-abb0-a7e5b160af19}, !- Name
  {bf9448d9-fb6a-4866-a031-644ea1491edd}; !- HVAC Component

OS:Sizing:Zone,
  {f16b7297-c315-4d42-a6f1-5af008fa807d}, !- Handle
  {bf9448d9-fb6a-4866-a031-644ea1491edd}, !- Zone or ZoneList Name
  14,                                     !- Zone Cooling Design Supply Air Temperature {C}
  40,                                     !- Zone Heating Design Supply Air Temperature {C}
  0.0085,                                 !- Zone Cooling Design Supply Air Humidity Ratio {kg-H2O/kg-air}
  0.008,                                  !- Zone Heating Design Supply Air Humidity Ratio {kg-H2O/kg-air}
  ,                                       !- Zone Heating Sizing Factor
  ,                                       !- Zone Cooling Sizing Factor
  DesignDay,                              !- Cooling Design Air Flow Method
  ,                                       !- Cooling Design Air Flow Rate {m3/s}
  ,                                       !- Cooling Minimum Air Flow per Zone Floor Area {m3/s-m2}
  ,                                       !- Cooling Minimum Air Flow {m3/s}
  ,                                       !- Cooling Minimum Air Flow Fraction
  DesignDay,                              !- Heating Design Air Flow Method
  ,                                       !- Heating Design Air Flow Rate {m3/s}
  ,                                       !- Heating Maximum Air Flow per Zone Floor Area {m3/s-m2}
  ,                                       !- Heating Maximum Air Flow {m3/s}
  ,                                       !- Heating Maximum Air Flow Fraction
  ,                                       !- Design Zone Air Distribution Effectiveness in Cooling Mode
  ;                                       !- Design Zone Air Distribution Effectiveness in Heating Mode

OS:ZoneHVAC:EquipmentList,
  {c65bb62b-2870-4fee-8757-704be05aca08}, !- Handle
  {facf3e94-696d-4601-8ec2-19f52f3e4680}, !- Name
  {bf9448d9-fb6a-4866-a031-644ea1491edd}; !- Thermal Zone

OS:Space,
  {b7fc9807-74cf-43fd-8b5f-48b090cd0fb8}, !- Handle
  Corridor_Flr_3,                         !- Name
  ,                                       !- Space Type Name
  ,                                       !- Default Construction Set Name
  ,                                       !- Default Schedule Set Name
  0,                                      !- Direction of Relative North {deg}
  0,                                      !- X Origin {m}
  0,                                      !- Y Origin {m}
  0,                                      !- Z Origin {m}
  ,                                       !- Building Story Name
  {bf9448d9-fb6a-4866-a031-644ea1491edd}, !- Thermal Zone Name
  Yes;                                    !- Part of Total Floor Area

OS:ThermostatSetpoint:DualSetpoint,
  {7ddd3d2e-f530-4ca2-a704-5b50398cc2a1}, !- Handle
  {47d1369e-1921-4f37-8cb6-8798dd1d2970}, !- Name
  {7da390fd-c17b-44d7-8f9a-4df5890407ab}, !- Heating Setpoint Temperature Schedule Name
  {8ede6699-d1e0-4b6f-9789-f9ba06ffffaf}; !- Cooling Setpoint Temperature Schedule Name

OS:Schedule:Compact,
  {7da390fd-c17b-44d7-8f9a-4df5890407ab}, !- Handle
  Corr_HTGSETP_SCH,                       !- Name
  {cecf87d2-c79d-4750-9074-367397c646f4}, !- Schedule Type Limits Name
  Through: 12/31,                         !- Field 1
  For: AllDays,                           !- Field 2
  Until: 24:00,                           !- Field 3
  16;                                     !- Field 4

OS:ScheduleTypeLimits,
  {cecf87d2-c79d-4750-9074-367397c646f4}, !- Handle
  Temperature,                            !- Name
  -60,                                    !- Lower Limit Value {BasedOnField A4}
  200,                                    !- Upper Limit Value {BasedOnField A4}
  CONTINUOUS,                             !- Numeric Type
  Temperature;                            !- Unit Type

OS:Schedule:Compact,
  {8ede6699-d1e0-4b6f-9789-f9ba06ffffaf}, !- Handle
  Corr_CLGSETP_SCH,                       !- Name
  {cecf87d2-c79d-4750-9074-367397c646f4}, !- Schedule Type Limits Name
  Through: 12/31,                         !- Field 1
  For: AllDays,                           !- Field 2
  Until: 24:00,                           !- Field 3
  30;                                     !- Field 4

OS:Lights:Definition,
  {248247a5-f67b-4a90-9f58-ccffcf425b00}, !- Handle
  Room_1_Flr_6_Lights Definition,         !- Name
  Watts/Area,                             !- Design Level Calculation Method
  ,                                       !- Lighting Level {W}
  11.84,                                  !- Watts per Space Floor Area {W/m2}
  ,                                       !- Watts per Person {W/person}
  0.7,                                    !- Fraction Radiant
  0.2,                                    !- Fraction Visible
  0,                                      !- Return Air Fraction
  No;                                     !- Return Air Fraction Calculated from Plenum Temperature

OS:Lights,
  {656bddb1-488a-464d-95d4-cb02212546e2}, !- Handle
  Room_1_Flr_6_Lights,                    !- Name
  {248247a5-f67b-4a90-9f58-ccffcf425b00}, !- Lights Definition Name
  {7e51c944-e3a8-4021-aa0f-5102f788fe18}, !- Space or SpaceType Name
  {8888a5ad-55e1-4549-8a31-1847938d4068}, !- Schedule Name
  1,                                      !- Fraction Replaceable
  ,                                       !- Multiplier
  General;                                !- End-Use Subcategory

OS:ThermalZone,
  {1b405ebd-17da-4398-ae6a-8428244001a7}, !- Handle
  Room_1_Flr_6 Thermal Zone,              !- Name
  1,                                      !- Multiplier
  ,                                       !- Ceiling Height {m}
  ,                                       !- Volume {m3}
  ,                                       !- Floor Area {m2}
  ,                                       !- Zone Inside Convection Algorithm
  ,                                       !- Zone Outside Convection Algorithm
  ,                                       !- Zone Conditioning Equipment List Name
  {5abf85be-4b6b-4753-a564-629b6523bbb7}, !- Zone Air Inlet Port List
  {f34b703a-69eb-4b3d-9e1e-fc74c34cc77d}, !- Zone Air Exhaust Port List
  {e9a75458-64af-478c-bfe3-4046c362a7cd}, !- Zone Air Node Name
  ,                                       !- Zone Return Air Node Name
  ,                                       !- Primary Daylighting Control Name
  ,                                       !- Fraction of Zone Controlled by Primary Daylighting Control
  ,                                       !- Secondary Daylighting Control Name
  ,                                       !- Fraction of Zone Controlled by Secondary Daylighting Control
  ,                                       !- Illuminance Map Name
  ,                                       !- Group Rendering Name
  {cbe618fc-ebf5-4d57-a08b-9e48a43ad8ab}, !- Thermostat Name
  No;                                     !- Use Ideal Air Loads

OS:Node,
  {4f6c4d96-9592-41f4-9f14-8d32872f9b17}, !- Handle
  {732b6d8b-a5db-4911-ac1e-e4cdcf101bf6}, !- Name
  {e9a75458-64af-478c-bfe3-4046c362a7cd}, !- Inlet Port
  ;                                       !- Outlet Port

OS:Connection,
  {e9a75458-64af-478c-bfe3-4046c362a7cd}, !- Handle
  {a8d8c156-0a74-4548-a469-63352a380da3}, !- Name
  {1b405ebd-17da-4398-ae6a-8428244001a7}, !- Source Object
  11,                                     !- Outlet Port
  {4f6c4d96-9592-41f4-9f14-8d32872f9b17}, !- Target Object
  2;                                      !- Inlet Port

OS:PortList,
  {5abf85be-4b6b-4753-a564-629b6523bbb7}, !- Handle
  {c362e224-0b07-4466-b4cc-587ee21d35c8}, !- Name
  {1b405ebd-17da-4398-ae6a-8428244001a7}; !- HVAC Component

OS:PortList,
  {f34b703a-69eb-4b3d-9e1e-fc74c34cc77d}, !- Handle
  {2cd69237-84e9-4551-b108-ba379f1f54c4}, !- Name
  {1b405ebd-17da-4398-ae6a-8428244001a7}; !- HVAC Component

OS:Sizing:Zone,
  {4c286938-ae7d-4d04-97d9-ea2e8c74eb66}, !- Handle
  {1b405ebd-17da-4398-ae6a-8428244001a7}, !- Zone or ZoneList Name
  14,                                     !- Zone Cooling Design Supply Air Temperature {C}
  40,                                     !- Zone Heating Design Supply Air Temperature {C}
  0.0085,                                 !- Zone Cooling Design Supply Air Humidity Ratio {kg-H2O/kg-air}
  0.008,                                  !- Zone Heating Design Supply Air Humidity Ratio {kg-H2O/kg-air}
  ,                                       !- Zone Heating Sizing Factor
  ,                                       !- Zone Cooling Sizing Factor
  DesignDay,                              !- Cooling Design Air Flow Method
  ,                                       !- Cooling Design Air Flow Rate {m3/s}
  ,                                       !- Cooling Minimum Air Flow per Zone Floor Area {m3/s-m2}
  ,                                       !- Cooling Minimum Air Flow {m3/s}
  ,                                       !- Cooling Minimum Air Flow Fraction
  DesignDay,                              !- Heating Design Air Flow Method
  ,                                       !- Heating Design Air Flow Rate {m3/s}
  ,                                       !- Heating Maximum Air Flow per Zone Floor Area {m3/s-m2}
  ,                                       !- Heating Maximum Air Flow {m3/s}
  ,                                       !- Heating Maximum Air Flow Fraction
  ,                                       !- Design Zone Air Distribution Effectiveness in Cooling Mode
  ;                                       !- Design Zone Air Distribution Effectiveness in Heating Mode

OS:ZoneHVAC:EquipmentList,
  {526ccbf5-69d8-42c6-a0d1-c570633662c0}, !- Handle
  {016c22fb-3721-4d32-97ca-aab6f1daf0a3}, !- Name
  {1b405ebd-17da-4398-ae6a-8428244001a7}; !- Thermal Zone

OS:Space,
  {7e51c944-e3a8-4021-aa0f-5102f788fe18}, !- Handle
  Room_1_Flr_6,                           !- Name
  ,                                       !- Space Type Name
  ,                                       !- Default Construction Set Name
  ,                                       !- Default Schedule Set Name
  0,                                      !- Direction of Relative North {deg}
  0,                                      !- X Origin {m}
  0,                                      !- Y Origin {m}
  0,                                      !- Z Origin {m}
  ,                                       !- Building Story Name
  {1b405ebd-17da-4398-ae6a-8428244001a7}, !- Thermal Zone Name
  Yes;                                    !- Part of Total Floor Area

OS:ThermostatSetpoint:DualSetpoint,
  {cbe618fc-ebf5-4d57-a08b-9e48a43ad8ab}, !- Handle
  {1c9fab87-0183-4032-a8ab-4fb79b5bc286}, !- Name
  {cb69e83e-4f82-44b3-a9f1-52be6ca3f9b4}, !- Heating Setpoint Temperature Schedule Name
  {fca2f8a7-3d64-4b0f-a5d9-d30233b676e1}; !- Cooling Setpoint Temperature Schedule Name

OS:Schedule:Compact,
  {cb69e83e-4f82-44b3-a9f1-52be6ca3f9b4}, !- Handle
  Guest_HTGSETP_SCH,                      !- Name
  {cecf87d2-c79d-4750-9074-367397c646f4}, !- Schedule Type Limits Name
  Through: 12/31,                         !- Field 1
  For: AllDays,                           !- Field 2
  Until: 24:00,                           !- Field 3
  21.;                                    !- Field 4

OS:Schedule:Compact,
  {fca2f8a7-3d64-4b0f-a5d9-d30233b676e1}, !- Handle
  Guest_CLGSETP_SCH,                      !- Name
  {cecf87d2-c79d-4750-9074-367397c646f4}, !- Schedule Type Limits Name
  Through: 12/31,                         !- Field 1
  For: AllDays,                           !- Field 2
  Until: 24:00,                           !- Field 3
  24.;                                    !- Field 4

OS:Schedule:Compact,
  {8888a5ad-55e1-4549-8a31-1847938d4068}, !- Handle
  GuestRoom_Ltg_Sch_Base,                 !- Name
  {859f6d65-0696-4378-b638-6844f2a9fa3e}, !- Schedule Type Limits Name
  Through: 12/31,                         !- Field 1
  For: Weekdays,                          !- Field 2
  Until: 01:00,                           !- Field 3
  0.22,                                   !- Field 4
  Until: 02:00,                           !- Field 5
  0.17,                                   !- Field 6
  Until: 05:00,                           !- Field 7
  0.11,                                   !- Field 8
  Until: 06:00,                           !- Field 9
  0.22,                                   !- Field 10
  Until: 07:00,                           !- Field 11
  0.44,                                   !- Field 12
  Until: 08:00,                           !- Field 13
  0.56,                                   !- Field 14
  Until: 10:00,                           !- Field 15
  0.44,                                   !- Field 16
  Until: 18:00,                           !- Field 17
  0.28,                                   !- Field 18
  Until: 19:00,                           !- Field 19
  0.67,                                   !- Field 20
  Until: 20:00,                           !- Field 21
  0.89,                                   !- Field 22
  Until: 21:00,                           !- Field 23
  1.0,                                    !- Field 24
  Until: 22:00,                           !- Field 25
  0.89,                                   !- Field 26
  Until: 23:00,                           !- Field 27
  0.67,                                   !- Field 28
  Until: 24:00,                           !- Field 29
  0.33,                                   !- Field 30
  For: Saturday Sunday Holidays,          !- Field 31
  Until: 02:00,                           !- Field 32
  0.26,                                   !- Field 33
  Until: 06:00,                           !- Field 34
  0.11,                                   !- Field 35
  Until: 08:00,                           !- Field 36
  0.41,                                   !- Field 37
  Until: 10:00,                           !- Field 38
  0.56,                                   !- Field 39
  Until: 11:00,                           !- Field 40
  0.41,                                   !- Field 41
  Until: 18:00,                           !- Field 42
  0.33,                                   !- Field 43
  Until: 19:00,                           !- Field 44
  0.85,                                   !- Field 45
  Until: 22:00,                           !- Field 46
  1.0,                                    !- Field 47
  Until: 23:00,                           !- Field 48
  0.85,                                   !- Field 49
  Until: 24:00,                           !- Field 50
  0.41,                                   !- Field 51
  For: WinterDesignDay,                   !- Field 52
  Until: 24:00,                           !- Field 53
  0.0,                                    !- Field 54
  For: SummerDesignDay CustomDay1 CustomDay2, !- Field 55
  Until: 24:00,                           !- Field 56
  1.0;                                    !- Field 57

OS:ScheduleTypeLimits,
  {859f6d65-0696-4378-b638-6844f2a9fa3e}, !- Handle
  Fraction,                               !- Name
  0,                                      !- Lower Limit Value {BasedOnField A4}
  1,                                      !- Upper Limit Value {BasedOnField A4}
  CONTINUOUS;                             !- Numeric Type

OS:Surface,
  {a946dbe2-a8d1-4900-8971-245f494aaf87}, !- Handle
  Retail_1_Flr_1_Wall_South,              !- Name
  Wall,                                   !- Surface Type
  {0e8599ba-b637-418c-81eb-a64adb790583}, !- Construction Name
  {74956b84-d4bf-4e74-8fc1-41fa2a7b73cb}, !- Space Name
  Outdoors,                               !- Outside Boundary Condition
  ,                                       !- Outside Boundary Condition Object
  SunExposed,                             !- Sun Exposure
  WindExposed,                            !- Wind Exposure
  ,                                       !- View Factor to Ground
  ,                                       !- Number of Vertices
  0, 0, 3.9624,                           !- X,Y,Z Vertex 1 {m}
  0, 0, 0,                                !- X,Y,Z Vertex 2 {m}
  11.582, 0, 0,                           !- X,Y,Z Vertex 3 {m}
  11.582, 0, 3.9624;                      !- X,Y,Z Vertex 4 {m}

OS:Construction,
  {0e8599ba-b637-418c-81eb-a64adb790583}, !- Handle
  Mass Non-res Ext Wall,                  !- Name
  ,                                       !- Surface Rendering Name
  {119c5842-554a-41e2-9287-cdbc70ee83ee}, !- Layer 1
  {2fd70fc6-8993-4414-bc11-44da178211f5}, !- Layer 2
  {c37435c1-f1ce-4324-8edd-c5aa3ceb1a0a}, !- Layer 3
  {a45ee181-33ba-497a-8cfb-8bbe4cda33cc}; !- Layer 4

OS:Material,
  {119c5842-554a-41e2-9287-cdbc70ee83ee}, !- Handle
  1IN Stucco,                             !- Name
  Smooth,                                 !- Roughness
  0.0253,                                 !- Thickness {m}
  0.6918,                                 !- Conductivity {W/m-K}
  1858,                                   !- Density {kg/m3}
  837,                                    !- Specific Heat {J/kg-K}
  0.9,                                    !- Thermal Absorptance
  0.92,                                   !- Solar Absorptance
  0.92;                                   !- Visible Absorptance

OS:Material,
  {2fd70fc6-8993-4414-bc11-44da178211f5}, !- Handle
  8IN CONCRETE HW,                        !- Name
  Rough,                                  !- Roughness
  0.2032,                                 !- Thickness {m}
  1.311,                                  !- Conductivity {W/m-K}
  2240,                                   !- Density {kg/m3}
  836.8,                                  !- Specific Heat {J/kg-K}
  0.9,                                    !- Thermal Absorptance
  0.7,                                    !- Solar Absorptance
  0.7;                                    !- Visible Absorptance

OS:Material,
  {c37435c1-f1ce-4324-8edd-c5aa3ceb1a0a}, !- Handle
  Mass NonRes Wall Insulation,            !- Name
  MediumRough,                            !- Roughness
  0.0495494599433393,                     !- Thickness {m}
  0.049,                                  !- Conductivity {W/m-K}
  265,                                    !- Density {kg/m3}
  836.8,                                  !- Specific Heat {J/kg-K}
  0.9,                                    !- Thermal Absorptance
  0.7,                                    !- Solar Absorptance
  0.7;                                    !- Visible Absorptance

OS:Material,
  {a45ee181-33ba-497a-8cfb-8bbe4cda33cc}, !- Handle
  1/2IN Gypsum,                           !- Name
  Smooth,                                 !- Roughness
  0.0127,                                 !- Thickness {m}
  0.16,                                   !- Conductivity {W/m-K}
  784.9,                                  !- Density {kg/m3}
  830,                                    !- Specific Heat {J/kg-K}
  0.9,                                    !- Thermal Absorptance
  0.92,                                   !- Solar Absorptance
  0.92;                                   !- Visible Absorptance

OS:ThermalZone,
  {66b32bb0-0258-44dc-8145-f4f0233d4314}, !- Handle
  Retail_1_Flr_1 Thermal Zone,            !- Name
  1,                                      !- Multiplier
  ,                                       !- Ceiling Height {m}
  ,                                       !- Volume {m3}
  ,                                       !- Floor Area {m2}
  ,                                       !- Zone Inside Convection Algorithm
  ,                                       !- Zone Outside Convection Algorithm
  ,                                       !- Zone Conditioning Equipment List Name
  {8b0a70d1-4f85-43b7-a1d0-868f1717ce5c}, !- Zone Air Inlet Port List
  {794eaa9e-4cbd-4a02-b0f9-5175d99073dd}, !- Zone Air Exhaust Port List
  {1c2e0571-a953-4847-818c-4a65cf498bfd}, !- Zone Air Node Name
  ,                                       !- Zone Return Air Node Name
  ,                                       !- Primary Daylighting Control Name
  ,                                       !- Fraction of Zone Controlled by Primary Daylighting Control
  ,                                       !- Secondary Daylighting Control Name
  ,                                       !- Fraction of Zone Controlled by Secondary Daylighting Control
  ,                                       !- Illuminance Map Name
  ,                                       !- Group Rendering Name
  {322dd02d-8204-455c-8dcd-abd015b32617}, !- Thermostat Name
  No;                                     !- Use Ideal Air Loads

OS:Node,
  {6646c180-cc75-4c54-b4b0-2eb32c6e640a}, !- Handle
  {d5037540-ad17-4e7c-8190-4c885e3a1c2d}, !- Name
  {1c2e0571-a953-4847-818c-4a65cf498bfd}, !- Inlet Port
  ;                                       !- Outlet Port

OS:Connection,
  {1c2e0571-a953-4847-818c-4a65cf498bfd}, !- Handle
  {de5a1524-e743-4fb4-8d2b-ec52d14325bc}, !- Name
  {66b32bb0-0258-44dc-8145-f4f0233d4314}, !- Source Object
  11,                                     !- Outlet Port
  {6646c180-cc75-4c54-b4b0-2eb32c6e640a}, !- Target Object
  2;                                      !- Inlet Port

OS:PortList,
  {8b0a70d1-4f85-43b7-a1d0-868f1717ce5c}, !- Handle
  {04c5f485-21f9-4312-9369-434b23c4d86f}, !- Name
  {66b32bb0-0258-44dc-8145-f4f0233d4314}; !- HVAC Component

OS:PortList,
  {794eaa9e-4cbd-4a02-b0f9-5175d99073dd}, !- Handle
  {690e7dfa-b887-4839-9425-0ce9eb1ac481}, !- Name
  {66b32bb0-0258-44dc-8145-f4f0233d4314}; !- HVAC Component

OS:Sizing:Zone,
  {93b16414-c644-4af8-acfe-0eb7a7d2b186}, !- Handle
  {66b32bb0-0258-44dc-8145-f4f0233d4314}, !- Zone or ZoneList Name
  14,                                     !- Zone Cooling Design Supply Air Temperature {C}
  40,                                     !- Zone Heating Design Supply Air Temperature {C}
  0.0085,                                 !- Zone Cooling Design Supply Air Humidity Ratio {kg-H2O/kg-air}
  0.008,                                  !- Zone Heating Design Supply Air Humidity Ratio {kg-H2O/kg-air}
  ,                                       !- Zone Heating Sizing Factor
  ,                                       !- Zone Cooling Sizing Factor
  DesignDay,                              !- Cooling Design Air Flow Method
  ,                                       !- Cooling Design Air Flow Rate {m3/s}
  ,                                       !- Cooling Minimum Air Flow per Zone Floor Area {m3/s-m2}
  ,                                       !- Cooling Minimum Air Flow {m3/s}
  ,                                       !- Cooling Minimum Air Flow Fraction
  DesignDay,                              !- Heating Design Air Flow Method
  ,                                       !- Heating Design Air Flow Rate {m3/s}
  ,                                       !- Heating Maximum Air Flow per Zone Floor Area {m3/s-m2}
  ,                                       !- Heating Maximum Air Flow {m3/s}
  ,                                       !- Heating Maximum Air Flow Fraction
  ,                                       !- Design Zone Air Distribution Effectiveness in Cooling Mode
  ;                                       !- Design Zone Air Distribution Effectiveness in Heating Mode

OS:ZoneHVAC:EquipmentList,
  {db70f039-37b4-4be2-821c-cfb417a34b38}, !- Handle
  {abb72bab-a489-4f1d-bb61-90509e5dbaf2}, !- Name
  {66b32bb0-0258-44dc-8145-f4f0233d4314}; !- Thermal Zone

OS:Space,
  {74956b84-d4bf-4e74-8fc1-41fa2a7b73cb}, !- Handle
  Retail_1_Flr_1,                         !- Name
  ,                                       !- Space Type Name
  ,                                       !- Default Construction Set Name
  ,                                       !- Default Schedule Set Name
  0,                                      !- Direction of Relative North {deg}
  0,                                      !- X Origin {m}