
OS:Version,
  {68280de0-945f-4b6f-b2d4-d1693406d9bf}, !- Handle
  1.3.0;                                  !- Version Identifier

OS:Site,
  {bc97c192-14c0-44b4-ad6f-8697bd00b68c}, !- Handle
  USA IL-CHICAGO-OHARE,                   !- Name
  41.77,                                  !- Latitude {deg}
  -87.75,                                 !- Longitude {deg}
  -6,                                     !- Time Zone {hr}
  190,                                    !- Elevation {m}
  City;                                   !- Terrain

OS:SimulationControl,
  {c4798807-3235-48df-8767-3d2b2911cd17}, !- Handle
  Yes,                                    !- Do Zone Sizing Calculation
  Yes,                                    !- Do System Sizing Calculation
  Yes,                                    !- Do Plant Sizing Calculation
  No,                                     !- Run Simulation for Sizing Periods
  Yes,                                    !- Run Simulation for Weather File Run Periods
  0.04,                                   !- Loads Convergence Tolerance Value
  0.2,                                    !- Temperature Convergence Tolerance Value {deltaC}
  FullInteriorAndExterior,                !- Solar Distribution
  25,                                     !- Maximum Number of Warmup Days
  6;                                      !- Minimum Number of Warmup Days

OS:Surface,
  {aa60fdd8-c537-4613-9b78-3bd24b1cf556}, !- Handle
  Perimeter_mid_ZN_1_Floor,               !- Name
  Floor,                                  !- Surface Type
  {925c0d05-5fc8-46ab-b331-ecf0973eb3c3}, !- Construction Name
  {ac7229af-965c-4fda-98d9-3307d5e466dd}, !- Space Name
  Adiabatic,                              !- Outside Boundary Condition
  ,                                       !- Outside Boundary Condition Object
  NoSun,                                  !- Sun Exposure
  NoWind,                                 !- Wind Exposure
  ,                                       !- View Factor to Ground
  ,                                       !- Number of Vertices
  68.534, 4.5732, 19.816,                 !- X,Y,Z Vertex 1 {m}
  73.1072, 0, 19.816,                     !- X,Y,Z Vertex 2 {m}
  0, 0, 19.816,                           !- X,Y,Z Vertex 3 {m}
  4.5732, 4.5732, 19.816;                 !- X,Y,Z Vertex 4 {m}

OS:Construction,
  {925c0d05-5fc8-46ab-b331-ecf0973eb3c3}, !- Handle
  INT-FLOOR-TOPSIDE,                      !- Name
  ,                                       !- Surface Rendering Name
  {c8b347ac-d799-429a-b348-930b1b19b188}, !- Layer 1
  {d4b32669-7b25-4710-b94c-316abecdc184}; !- Layer 2

OS:Material,
  {c8b347ac-d799-429a-b348-930b1b19b188}, !- Handle
  MAT-CC05 4 HW CONCRETE,                 !- Name
  Rough,                                  !- Roughness
  0.1016,                                 !- Thickness {m}
  1.311,                                  !- Conductivity {W/m-K}
  2240,                                   !- Density {kg/m3}
  836.8,                                  !- Specific Heat {J/kg-K}
  0.9,                                    !- Thermal Absorptance
  0.7,                                    !- Solar Absorptance
  0.7;                                    !- Visible Absorptance

OS:Material:NoMass,
  {d4b32669-7b25-4710-b94c-316abecdc184}, !- Handle
  CP02 CARPET PAD,                        !- Name
  VeryRough,                              !- Roughness
  0.2165,                                 !- Thermal Resistance {m2-K/W}
  0.9,                                    !- Thermal Absorptance
  0.7,                                    !- Solar Absorptance
  0.8;                                    !- Visible Absorptance

OS:ThermalZone,
  {3c86bece-c7bf-4fec-b704-80ef42401052}, !- Handle
  Perimeter_mid_ZN_1 Thermal Zone,        !- Name
  10,                                     !- Multiplier
  ,                                       !- Ceiling Height {m}
  ,                                       !- Volume {m3}
  ,                                       !- Floor Area {m2}
  ,                                       !- Zone Inside Convection Algorithm
  ,                                       !- Zone Outside Convection Algorithm
  ,                                       !- Zone Conditioning Equipment List Name
  {9d831b80-cc9f-4bc6-8725-95459d686342}, !- Zone Air Inlet Port List
  {b43c1e66-d476-41a0-bbe2-be4a4d6319fb}, !- Zone Air Exhaust Port List
  {31556ddc-12c8-4b26-80a4-d1e3c7feab8d}, !- Zone Air Node Name
  ,                                       !- Zone Return Air Node Name
  ,                                       !- Primary Daylighting Control Name
  ,                                       !- Fraction of Zone Controlled by Primary Daylighting Control
  ,                                       !- Secondary Daylighting Control Name
  ,                                       !- Fraction of Zone Controlled by Secondary Daylighting Control
  ,                                       !- Illuminance Map Name
  ,                                       !- Group Rendering Name
  {8ed496aa-0b61-4e98-9508-26f1903232e3}, !- Thermostat Name
  No;                                     !- Use Ideal Air Loads

OS:Node,
  {d5bd18a2-e748-4835-8335-bf6b5bc7108e}, !- Handle
  {8e87fde7-5eb9-4a8e-b6c6-e525dae3f9db}, !- Name
  {31556ddc-12c8-4b26-80a4-d1e3c7feab8d}, !- Inlet Port
  ;                                       !- Outlet Port

OS:Connection,
  {31556ddc-12c8-4b26-80a4-d1e3c7feab8d}, !- Handle
  {768f7327-4d30-42b9-9022-ffad04f8aff5}, !- Name
  {3c86bece-c7bf-4fec-b704-80ef42401052}, !- Source Object
  11,                                     !- Outlet Port
  {d5bd18a2-e748-4835-8335-bf6b5bc7108e}, !- Target Object
  2;                                      !- Inlet Port

OS:PortList,
  {9d831b80-cc9f-4bc6-8725-95459d686342}, !- Handle
  {8b9f866c-bb91-488c-9720-40ea6c04d32f}, !- Name
  {3c86bece-c7bf-4fec-b704-80ef42401052}; !- HVAC Component

OS:PortList,
  {b43c1e66-d476-41a0-bbe2-be4a4d6319fb}, !- Handle
  {85a5a40f-ab45-41ab-b349-c90be7db9855}, !- Name
  {3c86bece-c7bf-4fec-b704-80ef42401052}; !- HVAC Component

OS:Sizing:Zone,
  {5f122c37-2e76-4ef1-a2fe-aeb870c0c023}, !- Handle
  {3c86bece-c7bf-4fec-b704-80ef42401052}, !- Zone or ZoneList Name
  14,                                     !- Zone Cooling Design Supply Air Temperature {C}
  40,                                     !- Zone Heating Design Supply Air Temperature {C}
  0.0085,                                 !- Zone Cooling Design Supply Air Humidity Ratio {kg-H2O/kg-air}
  0.008,                                  !- Zone Heating Design Supply Air Humidity Ratio {kg-H2O/kg-air}
  ,                                       !- Zone Heating Sizing Factor
  ,                                       !- Zone Cooling Sizing Factor
  DesignDay,                              !- Cooling Design Air Flow Method
  ,                                       !- Cooling Design Air Flow Rate {m3/s}
  ,                                       !- Cooling Minimum Air Flow per Zone Floor Area {m3/s-m2}
  ,                                       !- Cooling Minimum Air Flow {m3/s}
  ,                                       !- Cooling Minimum Air Flow Fraction
  DesignDay,                              !- Heating Design Air Flow Method
  ,                                       !- Heating Design Air Flow Rate {m3/s}
  ,                                       !- Heating Maximum Air Flow per Zone Floor Area {m3/s-m2}
  ,                                       !- Heating Maximum Air Flow {m3/s}
  ,                                       !- Heating Maximum Air Flow Fraction
  ,                                       !- Design Zone Air Distribution Effectiveness in Cooling Mode
  ;                                       !- Design Zone Air Distribution Effectiveness in Heating Mode

OS:ZoneHVAC:EquipmentList,
  {6bd40a27-d0f9-4423-9b13-c719f41e2aeb}, !- Handle
  {318771ca-ea02-44a6-acdd-0546cda2480d}, !- Name
  {3c86bece-c7bf-4fec-b704-80ef42401052}; !- Thermal Zone

OS:Space,
  {ac7229af-965c-4fda-98d9-3307d5e466dd}, !- Handle
  Perimeter_mid_ZN_1,                     !- Name
  ,                                       !- Space Type Name
  ,                                       !- Default Construction Set Name
  ,                                       !- Default Schedule Set Name
  0,                                      !- Direction of Relative North {deg}
  0,                                      !- X Origin {m}
  0,                                      !- Y Origin {m}
  0,                                      !- Z Origin {m}
  ,                                       !- Building Story Name
  {3c86bece-c7bf-4fec-b704-80ef42401052}, !- Thermal Zone Name
  Yes;                                    !- Part of Total Floor Area

OS:ThermostatSetpoint:DualSetpoint,
  {8ed496aa-0b61-4e98-9508-26f1903232e3}, !- Handle
  {1465c606-f9e9-4031-92ce-dc2dc16a7f12}, !- Name
  {757f3fb9-65ca-4efa-b533-adf3d59aca0b}, !- Heating Setpoint Temperature Schedule Name
  {dfe69de6-fba1-40e9-bac9-1a3641be470f}; !- Cooling Setpoint Temperature Schedule Name

OS:Schedule:Compact,
  {757f3fb9-65ca-4efa-b533-adf3d59aca0b}, !- Handle
  HTGSETP_SCH,                            !- Name
  {d665826c-3205-46db-8877-151b8e6d105d}, !- Schedule Type Limits Name
  Through: 12/31,                         !- Field 1
  For: Weekdays,                          !- Field 2
  Until: 06:00,                           !- Field 3
  15.6,                                   !- Field 4
  Until: 22:00,                           !- Field 5
  21.0,                                   !- Field 6
  Until: 24:00,                           !- Field 7
  15.6,                                   !- Field 8
  For SummerDesignDay,                    !- Field 9
  Until: 24:00,                           !- Field 10
  15.6,                                   !- Field 11
  For: Saturday,                          !- Field 12
  Until: 06:00,                           !- Field 13
  15.6,                                   !- Field 14
  Until: 18:00,                           !- Field 15
  21.0,                                   !- Field 16
  Until: 24:00,                           !- Field 17
  15.6,                                   !- Field 18
  For: WinterDesignDay,                   !- Field 19
  Until: 24:00,                           !- Field 20
  21.0,                                   !- Field 21
  For: AllOtherDays,                      !- Field 22
  Until: 24:00,                           !- Field 23
  15.6;                                   !- Field 24

OS:ScheduleTypeLimits,
  {d665826c-3205-46db-8877-151b8e6d105d}, !- Handle
  Temperature,                            !- Name
  -60,                                    !- Lower Limit Value {BasedOnField A4}
  200,                                    !- Upper Limit Value {BasedOnField A4}
  CONTINUOUS,                             !- Numeric Type
  Temperature;                            !- Unit Type

OS:Schedule:Compact,
  {dfe69de6-fba1-40e9-bac9-1a3641be470f}, !- Handle
  CLGSETP_SCH,                            !- Name
  {d665826c-3205-46db-8877-151b8e6d105d}, !- Schedule Type Limits Name
  Through: 12/31,                         !- Field 1
  For: Weekdays SummerDesignDay,          !- Field 2
  Until: 06:00,                           !- Field 3
  26.7,                                   !- Field 4
  Until: 22:00,                           !- Field 5
  24.0,                                   !- Field 6
  Until: 24:00,                           !- Field 7
  26.7,                                   !- Field 8
  For: Saturday,                          !- Field 9
  Until: 06:00,                           !- Field 10
  26.7,                                   !- Field 11
  Until: 18:00,                           !- Field 12
  24.0,                                   !- Field 13
  Until: 24:00,                           !- Field 14
  26.7,                                   !- Field 15
  For WinterDesignDay,                    !- Field 16
  Until: 24:00,                           !- Field 17
  26.7,                                   !- Field 18
  For: AllOtherDays,                      !- Field 19
  Until: 24:00,                           !- Field 20
  26.7;                                   !- Field 21

OS:SubSurface,
  {b2e2b264-cbe2-423f-978a-b18ee6c65a84}, !- Handle
  Perimeter_mid_ZN_3_Wall_North_Window,   !- Name
  FixedWindow,                            !- Sub Surface Type
  {fe791b4b-9fb6-43eb-bee3-4ea17fa32f8a}, !- Construction Name
  {af67e6eb-5eb1-4952-af01-8385e49861c3}, !- Surface Name
  ,                                       !- Outside Boundary Condition Object
  ,                                       !- View Factor to Ground
  ,                                       !- Shading Control Name
  ,                                       !- Frame and Divider Name
  1,                                      !- Multiplier
  ,                                       !- Number of Vertices
  73.107, 48.7381, 22.316,                !- X,Y,Z Vertex 1 {m}
  73.107, 48.7381, 20.7306,               !- X,Y,Z Vertex 2 {m}
  0, 48.7381, 20.7306,                    !- X,Y,Z Vertex 3 {m}
  0, 48.7381, 22.316;                     !- X,Y,Z Vertex 4 {m}

OS:Construction,
  {fe791b4b-9fb6-43eb-bee3-4ea17fa32f8a}, !- Handle
  Window Non-res Fixed,                   !- Name
  ,                                       !- Surface Rendering Name
  {ccfe93e7-fc94-4e50-a3fb-9dd212ea4bb4}; !- Layer 1

OS:WindowMaterial:SimpleGlazingSystem,
  {ccfe93e7-fc94-4e50-a3fb-9dd212ea4bb4}, !- Handle
  NonRes Fixed Assembly Window,           !- Name
  3.23646,                                !- U-Factor {W/m2-K}
  0.39;                                   !- Solar Heat Gain Coefficient

OS:Surface,
  {af67e6eb-5eb1-4952-af01-8385e49861c3}, !- Handle
  Perimeter_mid_ZN_3_Wall_North,          !- Name
  Wall,                                   !- Surface Type
  {44f37877-df1b-4f7a-96bd-a2694c985c8d}, !- Construction Name
  {7bfa1230-87c5-4e66-b738-8bd11d76f3af}, !- Space Name
  Outdoors,                               !- Outside Boundary Condition
  ,                                       !- Outside Boundary Condition Object
  SunExposed,                             !- Sun Exposure
  WindExposed,                            !- Wind Exposure
  ,                                       !- View Factor to Ground
  ,                                       !- Number of Vertices
  73.1072, 48.7381, 22.56,                !- X,Y,Z Vertex 1 {m}
  73.1072, 48.7381, 19.816,               !- X,Y,Z Vertex 2 {m}
  0, 48.7381, 19.816,                     !- X,Y,Z Vertex 3 {m}
  0, 48.7381, 22.56;                      !- X,Y,Z Vertex 4 {m}

OS:Construction,
  {44f37877-df1b-4f7a-96bd-a2694c985c8d}, !- Handle
  Mass Non-res Ext Wall,                  !- Name
  ,                                       !- Surface Rendering Name
  {7002a5a7-1f3b-46ab-8803-bfac28a2cf01}, !- Layer 1
  {95d35718-f4bd-4ab1-99a4-9b7b710228de}, !- Layer 2
  {0d20e3d0-443e-4e62-a8e5-12081f882849}, !- Layer 3
  {967abb57-dbcb-4a87-9ae4-4ad95540d36a}; !- Layer 4

OS:Material,
  {7002a5a7-1f3b-46ab-8803-bfac28a2cf01}, !- Handle
  1IN Stucco,                             !- Name
  Smooth,                                 !- Roughness
  0.0253,                                 !- Thickness {m}
  0.6918,                                 !- Conductivity {W/m-K}
  1858,                                   !- Density {kg/m3}
  837,                                    !- Specific Heat {J/kg-K}
  0.9,                                    !- Thermal Absorptance
  0.92,                                   !- Solar Absorptance
  0.92;                                   !- Visible Absorptance

OS:Material,
  {95d35718-f4bd-4ab1-99a4-9b7b710228de}, !- Handle
  8IN CONCRETE HW,                        !- Name
  Rough,                                  !- Roughness
  0.2032,                                 !- Thickness {m}
  1.311,                                  !- Conductivity {W/m-K}
  2240,                                   !- Density {kg/m3}
  836.8,                                  !- Specific Heat {J/kg-K}
  0.9,                                    !- Thermal Absorptance
  0.7,                                    !- Solar Absorptance
  0.7;                                    !- Visible Absorptance

OS:Material,
  {0d20e3d0-443e-4e62-a8e5-12081f882849}, !- Handle
  Mass NonRes Wall Insulation,            !- Name
  MediumRough,                            !- Roughness
  0.0495494599433393,                     !- Thickness {m}
  0.049,                                  !- Conductivity {W/m-K}
  265,                                    !- Density {kg/m3}
  836.8,                                  !- Specific Heat {J/kg-K}
  0.9,                                    !- Thermal Absorptance
  0.7,                                    !- Solar Absorptance
  0.7;                                    !- Visible Absorptance

OS:Material,
  {967abb57-dbcb-4a87-9ae4-4ad95540d36a}, !- Handle
  1/2IN Gypsum,                           !- Name
  Smooth,                                 !- Roughness
  0.0127,                                 !- Thickness {m}
  0.16,                                   !- Conductivity {W/m-K}
  784.9,                                  !- Density {kg/m3}
  830,                                    !- Specific Heat {J/kg-K}
  0.9,                                    !- Thermal Absorptance
  0.92,                                   !- Solar Absorptance
  0.92;                                   !- Visible Absorptance

OS:ThermalZone,
  {3e8dfa0d-4ca1-4855-9ee7-6283fd506dd8}, !- Handle
  Perimeter_mid_ZN_3 Thermal Zone,        !- Name
  10,                                     !- Multiplier
  ,                                       !- Ceiling Height {m}
  ,                                       !- Volume {m3}
  ,                                       !- Floor Area {m2}
  ,                                       !- Zone Inside Convection Algorithm
  ,                                       !- Zone Outside Convection Algorithm
  ,                                       !- Zone Conditioning Equipment List Name
  {530c27f4-9ca2-41d2-a311-31d9ba8f46da}, !- Zone Air Inlet Port List
  {e4fd8433-8fce-47b3-97ce-677fb37617a4}, !- Zone Air Exhaust Port List
  {77982fe0-f696-4704-822f-ee1dd010be7f}, !- Zone Air Node Name
  ,                                       !- Zone Return Air Node Name
  ,                                       !- Primary Daylighting Control Name
  ,                                       !- Fraction of Zone Controlled by Primary Daylighting Control
  ,                                       !- Secondary Daylighting Control Name
  ,                                       !- Fraction of Zone Controlled by Secondary Daylighting Control
  ,                                       !- Illuminance Map Name
  ,                                       !- Group Rendering Name
  {9d06c193-095d-43d7-ac27-4c325ec9b1b8}, !- Thermostat Name
  No;                                     !- Use Ideal Air Loads

OS:Node,
  {90a3e666-643f-414f-963f-8e0182d94b69}, !- Handle
  {9dcd9d49-8965-44cc-adf8-1bbb4f82dc6c}, !- Name
  {77982fe0-f696-4704-822f-ee1dd010be7f}, !- Inlet Port
  ;                                       !- Outlet Port

OS:Connection,
  {77982fe0-f696-4704-822f-ee1dd010be7f}, !- Handle
  {f348daa5-913a-4d2e-935e-3f44d0768179}, !- Name
  {3e8dfa0d-4ca1-4855-9ee7-6283fd506dd8}, !- Source Object
  11,                                     !- Outlet Port
  {90a3e666-643f-414f-963f-8e0182d94b69}, !- Target Object
  2;                                      !- Inlet Port

OS:PortList,
  {530c27f4-9ca2-41d2-a311-31d9ba8f46da}, !- Handle
  {6f769137-30af-4847-9c0b-f1b58fca17fb}, !- Name
  {3e8dfa0d-4ca1-4855-9ee7-6283fd506dd8}; !- HVAC Component

OS:PortList,
  {e4fd8433-8fce-47b3-97ce-677fb37617a4}, !- Handle
  {dad8b43b-bd60-4bff-adba-6ef6c2930223}, !- Name
  {3e8dfa0d-4ca1-4855-9ee7-6283fd506dd8}; !- HVAC Component

OS:Sizing:Zone,
  {dc019959-1af8-4b1d-9274-7f930f96a8ba}, !- Handle
  {3e8dfa0d-4ca1-4855-9ee7-6283fd506dd8}, !- Zone or ZoneList Name
  14,                                     !- Zone Cooling Design Supply Air Temperature {C}
  40,                                     !- Zone Heating Design Supply Air Temperature {C}
  0.0085,                                 !- Zone Cooling Design Supply Air Humidity Ratio {kg-H2O/kg-air}
  0.008,                                  !- Zone Heating Design Supply Air Humidity Ratio {kg-H2O/kg-air}
  ,                                       !- Zone Heating Sizing Factor
  ,                                       !- Zone Cooling Sizing Factor
  DesignDay,                              !- Cooling Design Air Flow Method
  ,                                       !- Cooling Design Air Flow Rate {m3/s}
  ,                                       !- Cooling Minimum Air Flow per Zone Floor Area {m3/s-m2}
  ,                                       !- Cooling Minimum Air Flow {m3/s}
  ,                                       !- Cooling Minimum Air Flow Fraction
  DesignDay,                              !- Heating Design Air Flow Method
  ,                                       !- Heating Design Air Flow Rate {m3/s}
  ,                                       !- Heating Maximum Air Flow per Zone Floor Area {m3/s-m2}
  ,                                       !- Heating Maximum Air Flow {m3/s}
  ,                                       !- Heating Maximum Air Flow Fraction
  ,                                       !- Design Zone Air Distribution Effectiveness in Cooling Mode
  ;                                       !- Design Zone Air Distribution Effectiveness in Heating Mode

OS:ZoneHVAC:EquipmentList,
  {8bb89769-ced8-4c4d-8f3f-7ee7966c092c}, !- Handle
  {bc27c478-bab7-4a2f-8bc8-3a1fe2120ae5}, !- Name
  {3e8dfa0d-4ca1-4855-9ee7-6283fd506dd8}; !- Thermal Zone

OS:Space,
  {7bfa1230-87c5-4e66-b738-8bd11d76f3af}, !- Handle
  Perimeter_mid_ZN_3,                     !- Name
  ,                                       !- Space Type Name
  ,                                       !- Default Construction Set Name
  ,                                       !- Default Schedule Set Name
  0,                                      !- Direction of Relative North {deg}
  0,                                      !- X Origin {m}
  0,                                      !- Y Origin {m}
  0,                                      !- Z Origin {m}
  ,                                       !- Building Story Name
  {3e8dfa0d-4ca1-4855-9ee7-6283fd506dd8}, !- Thermal Zone Name
  Yes;                                    !- Part of Total Floor Area

OS:ThermostatSetpoint:DualSetpoint,
  {9d06c193-095d-43d7-ac27-4c325ec9b1b8}, !- Handle
  {4450535c-731d-43af-97d7-d4d6f1f676fa}, !- Name
  {757f3fb9-65ca-4efa-b533-adf3d59aca0b}, !- Heating Setpoint Temperature Schedule Name
  {dfe69de6-fba1-40e9-bac9-1a3641be470f}; !- Cooling Setpoint Temperature Schedule Name

OS:Surface,
  {a6cfe471-e3ad-44ea-babd-867fbc4f697c}, !- Handle
  Perimeter_mid_ZN_2_Wall_West,           !- Name
  Wall,                                   !- Surface Type
  {4f108e8c-0844-4f44-b979-d479e413da2d}, !- Construction Name
  {a9892f32-6d3c-4bb6-a78f-ecc7f6538431}, !- Space Name
  Surface,                                !- Outside Boundary Condition
  {c2de2a66-c6d1-4ef6-8826-38475f2625a0}, !- Outside Boundary Condition Object
  NoSun,                                  !- Sun Exposure
  NoWind,                                 !- Wind Exposure
  ,                                       !- View Factor to Ground
  ,                                       !- Number of Vertices
  68.534, 44.165, 22.56,                  !- X,Y,Z Vertex 1 {m}
  68.534, 44.165, 19.816,                 !- X,Y,Z Vertex 2 {m}
  68.534, 4.5732, 19.816,                 !- X,Y,Z Vertex 3 {m}
  68.534, 4.5732, 22.56;                  !- X,Y,Z Vertex 4 {m}

OS:Construction,
  {4f108e8c-0844-4f44-b979-d479e413da2d}, !- Handle
  int-walls,                              !- Name
  ,                                       !- Surface Rendering Name
  {967abb57-dbcb-4a87-9ae4-4ad95540d36a}, !- Layer 1
  {967abb57-dbcb-4a87-9ae4-4ad95540d36a}; !- Layer 2

OS:ThermalZone,
  {131ff199-5ea1-4356-b96e-c3a921be5fb8}, !- Handle
  Perimeter_mid_ZN_2 Thermal Zone,        !- Name
  10,                                     !- Multiplier
  ,                                       !- Ceiling Height {m}
  ,                                       !- Volume {m3}
  ,                                       !- Floor Area {m2}
  ,                                       !- Zone Inside Convection Algorithm
  ,                                       !- Zone Outside Convection Algorithm
  ,                                       !- Zone Conditioning Equipment List Name
  {53f8874f-c98d-45c3-ad7e-68e58f16eb28}, !- Zone Air Inlet Port List
  {645ab0e8-3d75-45fa-a1b7-f4761a9c406c}, !- Zone Air Exhaust Port List
  {e72ad79e-05c6-4471-89f1-46d70523eadb}, !- Zone Air Node Name
  ,                                       !- Zone Return Air Node Name
  ,                                       !- Primary Daylighting Control Name
  ,                                       !- Fraction of Zone Controlled by Primary Daylighting Control
  ,                                       !- Secondary Daylighting Control Name
  ,                                       !- Fraction of Zone Controlled by Secondary Daylighting Control
  ,                                       !- Illuminance Map Name
  ,                                       !- Group Rendering Name
  {2be417f0-b1f6-46b2-a90e-c9d65de52168}, !- Thermostat Name
  No;                                     !- Use Ideal Air Loads

OS:Node,
  {478cc286-f4e9-4928-8ddb-7874b35b3f94}, !- Handle
  {646a84a8-c486-4cb1-831f-58ffec14ae3e}, !- Name
  {e72ad79e-05c6-4471-89f1-46d70523eadb}, !- Inlet Port
  ;                                       !- Outlet Port

OS:Connection,
  {e72ad79e-05c6-4471-89f1-46d70523eadb}, !- Handle
  {cf425b11-be4c-4037-8bc0-aca8b11a3f35}, !- Name
  {131ff199-5ea1-4356-b96e-c3a921be5fb8}, !- Source Object
  11,                                     !- Outlet Port
  {478cc286-f4e9-4928-8ddb-7874b35b3f94}, !- Target Object
  2;                                      !- Inlet Port

OS:PortList,
  {53f8874f-c98d-45c3-ad7e-68e58f16eb28}, !- Handle
  {66962791-2171-4d80-b70c-b4a6ebfc0072}, !- Name
  {131ff199-5ea1-4356-b96e-c3a921be5fb8}; !- HVAC Component

OS:PortList,
  {645ab0e8-3d75-45fa-a1b7-f4761a9c406c}, !- Handle
  {1c4a5baf-d619-4545-9024-f5d79993cc67}, !- Name
  {131ff199-5ea1-4356-b96e-c3a921be5fb8}; !- HVAC Component

OS:Sizing:Zone,
  {04cf963c-6d62-4163-9735-5becf8bb7793}, !- Handle
  {131ff199-5ea1-4356-b96e-c3a921be5fb8}, !- Zone or ZoneList Name
  14,                                     !- Zone Cooling Design Supply Air Temperature {C}
  40,                                     !- Zone Heating Design Supply Air Temperature {C}
  0.0085,                                 !- Zone Cooling Design Supply Air Humidity Ratio {kg-H2O/kg-air}
  0.008,                                  !- Zone Heating Design Supply Air Humidity Ratio {kg-H2O/kg-air}
  ,                                       !- Zone Heating Sizing Factor
  ,                                       !- Zone Cooling Sizing Factor
  DesignDay,                              !- Cooling Design Air Flow Method
  ,                                       !- Cooling Design Air Flow Rate {m3/s}
  ,                                       !- Cooling Minimum Air Flow per Zone Floor Area {m3/s-m2}
  ,                                       !- Cooling Minimum Air Flow {m3/s}
  ,                                       !- Cooling Minimum Air Flow Fraction
  DesignDay,                              !- Heating Design Air Flow Method
  ,                                       !- Heating Design Air Flow Rate {m3/s}
  ,                                       !- Heating Maximum Air Flow per Zone Floor Area {m3/s-m2}
  ,                                       !- Heating Maximum Air Flow {m3/s}
  ,                                       !- Heating Maximum Air Flow Fraction
  ,                                       !- Design Zone Air Distribution Effectiveness in Cooling Mode
  ;                                       !- Design Zone Air Distribution Effectiveness in Heating Mode

OS:ZoneHVAC:EquipmentList,
  {8fe16af0-553f-4e19-982c-b10ff6ac582f}, !- Handle
  {ff81ba0e-d76c-45fa-8ff1-383fa04a44e3}, !- Name
  {131ff199-5ea1-4356-b96e-c3a921be5fb8}; !- Thermal Zone

OS:Space,
  {a9892f32-6d3c-4bb6-a78f-ecc7f6538431}, !- Handle
  Perimeter_mid_ZN_2,                     !- Name
  ,                                       !- Space Type Name
  ,                                       !- Default Construction Set Name
  ,                                       !- Default Schedule Set Name
  0,                                      !- Direction of Relative North {deg}
  0,                                      !- X Origin {m}
  0,                                      !- Y Origin {m}
  0,                                      !- Z Origin {m}
  ,                                       !- Building Story Name
  {131ff199-5ea1-4356-b96e-c3a921be5fb8}, !- Thermal Zone Name
  Yes;                                    !- Part of Total Floor Area

OS:ThermostatSetpoint:DualSetpoint,
  {2be417f0-b1f6-46b2-a90e-c9d65de52168}, !- Handle
  {65b22edc-0373-4b86-8c7e-a95449c44d1e}, !- Name
  {757f3fb9-65ca-4efa-b533-adf3d59aca0b}, !- Heating Setpoint Temperature Schedule Name
  {dfe69de6-fba1-40e9-bac9-1a3641be470f}; !- Cooling Setpoint Temperature Schedule Name

OS:Surface,
  {c163c2c5-a290-4bf4-95dd-2a9556d89c51}, !- Handle
  Core_mid_ZN_5_Wall_North,               !- Name
  Wall,                                   !- Surface Type
  {4f108e8c-0844-4f44-b979-d479e413da2d}, !- Construction Name
  {29665ed2-cc67-4a32-b25c-ffdcaa64a616}, !- Space Name