
OS:Version,
  {023cc163-4b9f-4ed3-ba19-1fbb6a04c049}, !- Handle
  1.3.0;                                  !- Version Identifier

OS:Site,
  {4eb0b49e-6039-4c08-b1c6-338e5e3380e8}, !- Handle
  USA IL-CHICAGO-OHARE,                   !- Name
  41.77,                                  !- Latitude {deg}
  -87.75,                                 !- Longitude {deg}
  -6,                                     !- Time Zone {hr}
  190,                                    !- Elevation {m}
  City;                                   !- Terrain

OS:SimulationControl,
  {24590fa8-f0a2-4011-b5b1-6246fa522aff}, !- Handle
  Yes,                                    !- Do Zone Sizing Calculation
  Yes,                                    !- Do System Sizing Calculation
  Yes,                                    !- Do Plant Sizing Calculation
  No,                                     !- Run Simulation for Sizing Periods
  Yes,                                    !- Run Simulation for Weather File Run Periods
  0.04,                                   !- Loads Convergence Tolerance Value
  0.2,                                    !- Temperature Convergence Tolerance Value {deltaC}
  FullInteriorAndExterior,                !- Solar Distribution
  25,                                     !- Maximum Number of Warmup Days
  6;                                      !- Minimum Number of Warmup Days

OS:ThermostatSetpoint:DualSetpoint,
  {34943fee-d4d2-40cc-b354-ae39030df38d}, !- Handle
  {50a585f4-22e7-4cc4-9324-c01ffd13d7ed}, !- Name
  {ea9e0d2d-ec13-4436-94a1-9c798b43ee2a}, !- Heating Setpoint Temperature Schedule Name
  {7c2e2867-50cf-4d59-bf0d-2c634301bdca}; !- Cooling Setpoint Temperature Schedule Name

OS:Schedule:Compact,
  {ea9e0d2d-ec13-4436-94a1-9c798b43ee2a}, !- Handle
  HTGSETP_SCH,                            !- Name
  {10a9bb53-e9c7-4c61-b1e4-18c9d72d63f1}, !- Schedule Type Limits Name
  Through: 12/31,                         !- Field 1
  For: Weekdays,                          !- Field 2
  Until: 06:00,                           !- Field 3
  15.6,                                   !- Field 4
  Until: 22:00,                           !- Field 5
  21.0,                                   !- Field 6
  Until: 24:00,                           !- Field 7
  15.6,                                   !- Field 8
  For SummerDesignDay,                    !- Field 9
  Until: 24:00,                           !- Field 10
  15.6,                                   !- Field 11
  For: Saturday,                          !- Field 12
  Until: 06:00,                           !- Field 13
  15.6,                                   !- Field 14
  Until: 18:00,                           !- Field 15
  21.0,                                   !- Field 16
  Until: 24:00,                           !- Field 17
  15.6,                                   !- Field 18
  For: WinterDesignDay,                   !- Field 19
  Until: 24:00,                           !- Field 20
  21.0,                                   !- Field 21
  For: AllOtherDays,                      !- Field 22
  Until: 24:00,                           !- Field 23
  15.6;                                   !- Field 24

OS:ScheduleTypeLimits,
  {10a9bb53-e9c7-4c61-b1e4-18c9d72d63f1}, !- Handle
  Temperature,                            !- Name
  -60,                                    !- Lower Limit Value {BasedOnField A4}
  200,                                    !- Upper Limit Value {BasedOnField A4}
  CONTINUOUS,                             !- Numeric Type
  Temperature;                            !- Unit Type

OS:Schedule:Compact,
  {7c2e2867-50cf-4d59-bf0d-2c634301bdca}, !- Handle
  CLGSETP_SCH,                            !- Name
  {10a9bb53-e9c7-4c61-b1e4-18c9d72d63f1}, !- Schedule Type Limits Name
  Through: 12/31,                         !- Field 1
  For: Weekdays SummerDesignDay,          !- Field 2
  Until: 06:00,                           !- Field 3
  26.7,                                   !- Field 4
  Until: 22:00,                           !- Field 5
  24.0,                                   !- Field 6
  Until: 24:00,                           !- Field 7
  26.7,                                   !- Field 8
  For: Saturday,                          !- Field 9
  Until: 06:00,                           !- Field 10
  26.7,                                   !- Field 11
  Until: 18:00,                           !- Field 12
  24.0,                                   !- Field 13
  Until: 24:00,                           !- Field 14
  26.7,                                   !- Field 15
  For WinterDesignDay,                    !- Field 16
  Until: 24:00,                           !- Field 17
  26.7,                                   !- Field 18
  For: AllOtherDays,                      !- Field 19
  Until: 24:00,                           !- Field 20
  26.7;                                   !- Field 21

OS:Surface,
  {0568a4c9-b958-4129-8a89-2eb9023691a2}, !- Handle
  Core_bot_ZN_5_Wall_West,                !- Name
  Wall,                                   !- Surface Type
  {7a096a48-898b-4209-8922-210ca50d46e4}, !- Construction Name
  {65b94132-a140-4ba1-bfec-8fc943741c52}, !- Space Name
  Surface,                                !- Outside Boundary Condition
  {ccdc8ac3-eb42-4380-a113-f5057cfd6e43}, !- Outside Boundary Condition Object
  NoSun,                                  !- Sun Exposure
  NoWind,                                 !- Wind Exposure
  ,                                       !- View Factor to Ground
  ,                                       !- Number of Vertices
  4.5732, 28.7006, 2.7432,                !- X,Y,Z Vertex 1 {m}
  4.5732, 28.7006, 0,                     !- X,Y,Z Vertex 2 {m}
  4.5732, 4.5732, 0,                      !- X,Y,Z Vertex 3 {m}
  4.5732, 4.5732, 2.7432;                 !- X,Y,Z Vertex 4 {m}

OS:Construction,
  {7a096a48-898b-4209-8922-210ca50d46e4}, !- Handle
  int-walls,                              !- Name
  ,                                       !- Surface Rendering Name
  {dae02502-3871-47ea-9d60-d51b11daaf9e}, !- Layer 1
  {dae02502-3871-47ea-9d60-d51b11daaf9e}; !- Layer 2

OS:Material,
  {dae02502-3871-47ea-9d60-d51b11daaf9e}, !- Handle
  1/2IN Gypsum,                           !- Name
  Smooth,                                 !- Roughness
  0.0127,                                 !- Thickness {m}
  0.16,                                   !- Conductivity {W/m-K}
  784.9,                                  !- Density {kg/m3}
  830,                                    !- Specific Heat {J/kg-K}
  0.9,                                    !- Thermal Absorptance
  0.92,                                   !- Solar Absorptance
  0.92;                                   !- Visible Absorptance

OS:ThermalZone,
  {b4193fd4-a3a7-45bc-93b4-caab0066fa56}, !- Handle
  Core_bottom Thermal Zone,               !- Name
  1,                                      !- Multiplier
  ,                                       !- Ceiling Height {m}
  ,                                       !- Volume {m3}
  ,                                       !- Floor Area {m2}
  ,                                       !- Zone Inside Convection Algorithm
  ,                                       !- Zone Outside Convection Algorithm
  ,                                       !- Zone Conditioning Equipment List Name
  {e69726f8-aef8-4302-9327-d6b7b6dfb7ad}, !- Zone Air Inlet Port List
  {12326969-b41e-4d47-987f-0291f797467e}, !- Zone Air Exhaust Port List
  {6bb28116-5368-43e5-9d0f-561fbebf9123}, !- Zone Air Node Name
  ,                                       !- Zone Return Air Node Name
  ,                                       !- Primary Daylighting Control Name
  ,                                       !- Fraction of Zone Controlled by Primary Daylighting Control
  ,                                       !- Secondary Daylighting Control Name
  ,                                       !- Fraction of Zone Controlled by Secondary Daylighting Control
  ,                                       !- Illuminance Map Name
  ,                                       !- Group Rendering Name
  {34943fee-d4d2-40cc-b354-ae39030df38d}, !- Thermostat Name
  No;                                     !- Use Ideal Air Loads

OS:Node,
  {a06ecf57-5d69-4467-8578-3d5ffa6f663c}, !- Handle
  {ebce313d-b574-4d1c-b990-80cd5aaa4b5f}, !- Name
  {6bb28116-5368-43e5-9d0f-561fbebf9123}, !- Inlet Port
  ;                                       !- Outlet Port

OS:Connection,
  {6bb28116-5368-43e5-9d0f-561fbebf9123}, !- Handle
  {58db992d-c64a-4dad-ad97-8c916797d294}, !- Name
  {b4193fd4-a3a7-45bc-93b4-caab0066fa56}, !- Source Object
  11,                                     !- Outlet Port
  {a06ecf57-5d69-4467-8578-3d5ffa6f663c}, !- Target Object
  2;                                      !- Inlet Port

OS:PortList,
  {e69726f8-aef8-4302-9327-d6b7b6dfb7ad}, !- Handle
  {06ab5b91-1faf-456e-a9fe-394db424434f}, !- Name
  {b4193fd4-a3a7-45bc-93b4-caab0066fa56}; !- HVAC Component

OS:PortList,
  {12326969-b41e-4d47-987f-0291f797467e}, !- Handle
  {7e70cda4-01d5-43a0-b159-8ae6ddd29b73}, !- Name
  {b4193fd4-a3a7-45bc-93b4-caab0066fa56}; !- HVAC Component

OS:Sizing:Zone,
  {4cd6e998-035e-4887-ac5f-501a65b9a4b5}, !- Handle
  {b4193fd4-a3a7-45bc-93b4-caab0066fa56}, !- Zone or ZoneList Name
  14,                                     !- Zone Cooling Design Supply Air Temperature {C}
  40,                                     !- Zone Heating Design Supply Air Temperature {C}
  0.0085,                                 !- Zone Cooling Design Supply Air Humidity Ratio {kg-H2O/kg-air}
  0.008,                                  !- Zone Heating Design Supply Air Humidity Ratio {kg-H2O/kg-air}
  ,                                       !- Zone Heating Sizing Factor
  ,                                       !- Zone Cooling Sizing Factor
  DesignDay,                              !- Cooling Design Air Flow Method
  ,                                       !- Cooling Design Air Flow Rate {m3/s}
  ,                                       !- Cooling Minimum Air Flow per Zone Floor Area {m3/s-m2}
  ,                                       !- Cooling Minimum Air Flow {m3/s}
  ,                                       !- Cooling Minimum Air Flow Fraction
  DesignDay,                              !- Heating Design Air Flow Method
  ,                                       !- Heating Design Air Flow Rate {m3/s}
  ,                                       !- Heating Maximum Air Flow per Zone Floor Area {m3/s-m2}
  ,                                       !- Heating Maximum Air Flow {m3/s}
  ,                                       !- Heating Maximum Air Flow Fraction
  ,                                       !- Design Zone Air Distribution Effectiveness in Cooling Mode
  ;                                       !- Design Zone Air Distribution Effectiveness in Heating Mode

OS:ZoneHVAC:EquipmentList,
  {451e3481-cbaf-4032-9fcf-eafe9e6dbe39}, !- Handle
  {6579e801-1492-4cfd-8d72-fcbb1cfceeee}, !- Name
  {b4193fd4-a3a7-45bc-93b4-caab0066fa56}; !- Thermal Zone

OS:Space,
  {65b94132-a140-4ba1-bfec-8fc943741c52}, !- Handle
  Core_bottom,                            !- Name
  ,                                       !- Space Type Name
  ,                                       !- Default Construction Set Name
  ,                                       !- Default Schedule Set Name
  0,                                      !- Direction of Relative North {deg}
  0,                                      !- X Origin {m}
  0,                                      !- Y Origin {m}
  0,                                      !- Z Origin {m}
  ,                                       !- Building Story Name
  {b4193fd4-a3a7-45bc-93b4-caab0066fa56}, !- Thermal Zone Name
  Yes;                                    !- Part of Total Floor Area

OS:Surface,
  {c7a979d6-1eb7-4a61-b602-d56daf4a95d0}, !- Handle
  Perimeter_top_ZN_3_Wall_South,          !- Name
  Wall,                                   !- Surface Type
  {7a096a48-898b-4209-8922-210ca50d46e4}, !- Construction Name
  {4af89dc7-e9f8-4fd6-87a8-216073f5d004}, !- Space Name
  Surface,                                !- Outside Boundary Condition
  {547caf70-d606-422a-acb8-b25ca896e3b6}, !- Outside Boundary Condition Object
  NoSun,                                  !- Sun Exposure
  NoWind,                                 !- Wind Exposure
  ,                                       !- View Factor to Ground
  ,                                       !- Number of Vertices
  4.5732, 28.7006, 10.668,                !- X,Y,Z Vertex 1 {m}
  4.5732, 28.7006, 7.9248,                !- X,Y,Z Vertex 2 {m}
  45.3375, 28.7006, 7.9248,               !- X,Y,Z Vertex 3 {m}
  45.3375, 28.7006, 10.668;               !- X,Y,Z Vertex 4 {m}

OS:ThermalZone,
  {7d24f604-edc8-498d-ae90-a9da01790f37}, !- Handle
  Perimeter_top_ZN_3 Thermal Zone,        !- Name
  1,                                      !- Multiplier
  ,                                       !- Ceiling Height {m}
  ,                                       !- Volume {m3}
  ,                                       !- Floor Area {m2}
  ,                                       !- Zone Inside Convection Algorithm
  ,                                       !- Zone Outside Convection Algorithm
  ,                                       !- Zone Conditioning Equipment List Name
  {f2779904-afd3-4858-8af4-a9a597666fb7}, !- Zone Air Inlet Port List
  {8fece5f9-1144-408d-a476-0687a029d8e7}, !- Zone Air Exhaust Port List
  {484b7a7b-68aa-401e-942a-70661b597b2c}, !- Zone Air Node Name
  ,                                       !- Zone Return Air Node Name
  ,                                       !- Primary Daylighting Control Name
  ,                                       !- Fraction of Zone Controlled by Primary Daylighting Control
  ,                                       !- Secondary Daylighting Control Name
  ,                                       !- Fraction of Zone Controlled by Secondary Daylighting Control
  ,                                       !- Illuminance Map Name
  ,                                       !- Group Rendering Name
  {93098da6-fb9b-4f9a-8140-033c977f200c}, !- Thermostat Name
  No;                                     !- Use Ideal Air Loads

OS:Node,
  {1c64a234-696e-424a-b0ba-e9c9f797917d}, !- Handle
  {b7539d8b-6c11-4718-a957-b85599d42263}, !- Name
  {484b7a7b-68aa-401e-942a-70661b597b2c}, !- Inlet Port
  ;                                       !- Outlet Port

OS:Connection,
  {484b7a7b-68aa-401e-942a-70661b597b2c}, !- Handle
  {67a9903e-fac7-4713-acfa-e4d3c00d5307}, !- Name
  {7d24f604-edc8-498d-ae90-a9da01790f37}, !- Source Object
  11,                                     !- Outlet Port
  {1c64a234-696e-424a-b0ba-e9c9f797917d}, !- Target Object
  2;                                      !- Inlet Port

OS:PortList,
  {f2779904-afd3-4858-8af4-a9a597666fb7}, !- Handle
  {09a676bf-9cb9-4bfe-9f79-d36d390dca0d}, !- Name
  {7d24f604-edc8-498d-ae90-a9da01790f37}; !- HVAC Component

OS:PortList,
  {8fece5f9-1144-408d-a476-0687a029d8e7}, !- Handle
  {8865d498-1adf-4e2c-9430-a9ad0c60ff96}, !- Name
  {7d24f604-edc8-498d-ae90-a9da01790f37}; !- HVAC Component

OS:Sizing:Zone,
  {5ba4d920-38fb-4b6c-a978-b93077a2dac4}, !- Handle
  {7d24f604-edc8-498d-ae90-a9da01790f37}, !- Zone or ZoneList Name
  14,                                     !- Zone Cooling Design Supply Air Temperature {C}
  40,                                     !- Zone Heating Design Supply Air Temperature {C}
  0.0085,                                 !- Zone Cooling Design Supply Air Humidity Ratio {kg-H2O/kg-air}
  0.008,                                  !- Zone Heating Design Supply Air Humidity Ratio {kg-H2O/kg-air}
  ,                                       !- Zone Heating Sizing Factor
  ,                                       !- Zone Cooling Sizing Factor
  DesignDay,                              !- Cooling Design Air Flow Method
  ,                                       !- Cooling Design Air Flow Rate {m3/s}
  ,                                       !- Cooling Minimum Air Flow per Zone Floor Area {m3/s-m2}
  ,                                       !- Cooling Minimum Air Flow {m3/s}
  ,                                       !- Cooling Minimum Air Flow Fraction
  DesignDay,                              !- Heating Design Air Flow Method
  ,                                       !- Heating Design Air Flow Rate {m3/s}
  ,                                       !- Heating Maximum Air Flow per Zone Floor Area {m3/s-m2}
  ,                                       !- Heating Maximum Air Flow {m3/s}
  ,                                       !- Heating Maximum Air Flow Fraction
  ,                                       !- Design Zone Air Distribution Effectiveness in Cooling Mode
  ;                                       !- Design Zone Air Distribution Effectiveness in Heating Mode

OS:ZoneHVAC:EquipmentList,
  {837a7573-5722-4e75-9878-638641bc6b47}, !- Handle
  {163c6b04-24f8-4675-be6f-6d62dadf27d8}, !- Name
  {7d24f604-edc8-498d-ae90-a9da01790f37}; !- Thermal Zone

OS:Space,
  {4af89dc7-e9f8-4fd6-87a8-216073f5d004}, !- Handle
  Perimeter_top_ZN_3,                     !- Name
  ,                                       !- Space Type Name
  ,                                       !- Default Construction Set Name
  ,                                       !- Default Schedule Set Name
  0,                                      !- Direction of Relative North {deg}
  0,                                      !- X Origin {m}
  0,                                      !- Y Origin {m}
  0,                                      !- Z Origin {m}
  ,                                       !- Building Story Name
  {7d24f604-edc8-498d-ae90-a9da01790f37}, !- Thermal Zone Name
  Yes;                                    !- Part of Total Floor Area

OS:ThermostatSetpoint:DualSetpoint,
  {93098da6-fb9b-4f9a-8140-033c977f200c}, !- Handle
  {7ef8dc9a-7c54-4acc-a2f2-8d4fff40d16b}, !- Name
  {ea9e0d2d-ec13-4436-94a1-9c798b43ee2a}, !- Heating Setpoint Temperature Schedule Name
  {7c2e2867-50cf-4d59-bf0d-2c634301bdca}; !- Cooling Setpoint Temperature Schedule Name

OS:Surface,
  {e273e7f6-5599-4bc5-b8ae-4385ee21f6e0}, !- Handle
  Perimeter_top_ZN_2_Wall_South,          !- Name
  Wall,                                   !- Surface Type
  {7a096a48-898b-4209-8922-210ca50d46e4}, !- Construction Name
  {eccdca9c-e51b-40fe-b0ad-f508631124c0}, !- Space Name
  Surface,                                !- Outside Boundary Condition
  {ef1d7e23-9fec-4573-b82e-28d2ded96299}, !- Outside Boundary Condition Object
  NoSun,                                  !- Sun Exposure
  NoWind,                                 !- Wind Exposure
  ,                                       !- View Factor to Ground
  ,                                       !- Number of Vertices
  45.3375, 4.5732, 10.668,                !- X,Y,Z Vertex 1 {m}
  45.3375, 4.5732, 7.9248,                !- X,Y,Z Vertex 2 {m}
  49.911, 0, 7.9248,                      !- X,Y,Z Vertex 3 {m}
  49.911, 0, 10.668;                      !- X,Y,Z Vertex 4 {m}

OS:ThermalZone,
  {d42183a9-4e4f-4133-b046-e98fba79fec8}, !- Handle
  Perimeter_top_ZN_2 Thermal Zone,        !- Name
  1,                                      !- Multiplier
  ,                                       !- Ceiling Height {m}
  ,                                       !- Volume {m3}
  ,                                       !- Floor Area {m2}
  ,                                       !- Zone Inside Convection Algorithm
  ,                                       !- Zone Outside Convection Algorithm
  ,                                       !- Zone Conditioning Equipment List Name
  {a1df6816-5b48-48a3-9503-7ac13bd08f61}, !- Zone Air Inlet Port List
  {7aefab1c-9f9e-49d0-9ead-d17a63787bfd}, !- Zone Air Exhaust Port List
  {af82f710-4c7a-491c-b073-587c711ec81e}, !- Zone Air Node Name
  ,                                       !- Zone Return Air Node Name
  ,                                       !- Primary Daylighting Control Name
  ,                                       !- Fraction of Zone Controlled by Primary Daylighting Control
  ,                                       !- Secondary Daylighting Control Name
  ,                                       !- Fraction of Zone Controlled by Secondary Daylighting Control
  ,                                       !- Illuminance Map Name
  ,                                       !- Group Rendering Name
  {a22d1449-ccf0-49c7-bb8c-ee37d3782d77}, !- Thermostat Name
  No;                                     !- Use Ideal Air Loads

OS:Node,
  {f917f5d4-d756-4440-99b4-cafb478f0b74}, !- Handle
  {1aee8805-2f1e-4a45-aacf-734669ef2d2f}, !- Name
  {af82f710-4c7a-491c-b073-587c711ec81e}, !- Inlet Port
  ;                                       !- Outlet Port

OS:Connection,
  {af82f710-4c7a-491c-b073-587c711ec81e}, !- Handle
  {e4cfbeba-db13-4b71-98b4-9d6e61797a0e}, !- Name
  {d42183a9-4e4f-4133-b046-e98fba79fec8}, !- Source Object
  11,                                     !- Outlet Port
  {f917f5d4-d756-4440-99b4-cafb478f0b74}, !- Target Object
  2;                                      !- Inlet Port

OS:PortList,
  {a1df6816-5b48-48a3-9503-7ac13bd08f61}, !- Handle
  {5cf65e29-8cf6-454f-ab25-48f9d8512674}, !- Name
  {d42183a9-4e4f-4133-b046-e98fba79fec8}; !- HVAC Component

OS:PortList,
  {7aefab1c-9f9e-49d0-9ead-d17a63787bfd}, !- Handle
  {7a06e4cf-9fe6-413a-a330-3e9e115251dd}, !- Name
  {d42183a9-4e4f-4133-b046-e98fba79fec8}; !- HVAC Component

OS:Sizing:Zone,
  {61b7d091-b46f-43a6-a273-20f06b70bc48}, !- Handle
  {d42183a9-4e4f-4133-b046-e98fba79fec8}, !- Zone or ZoneList Name
  14,                                     !- Zone Cooling Design Supply Air Temperature {C}
  40,                                     !- Zone Heating Design Supply Air Temperature {C}
  0.0085,                                 !- Zone Cooling Design Supply Air Humidity Ratio {kg-H2O/kg-air}
  0.008,                                  !- Zone Heating Design Supply Air Humidity Ratio {kg-H2O/kg-air}
  ,                                       !- Zone Heating Sizing Factor
  ,                                       !- Zone Cooling Sizing Factor
  DesignDay,                              !- Cooling Design Air Flow Method
  ,                                       !- Cooling Design Air Flow Rate {m3/s}
  ,                                       !- Cooling Minimum Air Flow per Zone Floor Area {m3/s-m2}
  ,                                       !- Cooling Minimum Air Flow {m3/s}
  ,                                       !- Cooling Minimum Air Flow Fraction
  DesignDay,                              !- Heating Design Air Flow Method
  ,                                       !- Heating Design Air Flow Rate {m3/s}
  ,                                       !- Heating Maximum Air Flow per Zone Floor Area {m3/s-m2}
  ,                                       !- Heating Maximum Air Flow {m3/s}
  ,                                       !- Heating Maximum Air Flow Fraction
  ,                                       !- Design Zone Air Distribution Effectiveness in Cooling Mode
  ;                                       !- Design Zone Air Distribution Effectiveness in Heating Mode

OS:ZoneHVAC:EquipmentList,
  {b20faf23-162a-4a15-a70f-95b687bb57ea}, !- Handle
  {d8c37afa-9206-4b69-a0b2-6421e7f8906f}, !- Name
  {d42183a9-4e4f-4133-b046-e98fba79fec8}; !- Thermal Zone

OS:Space,
  {eccdca9c-e51b-40fe-b0ad-f508631124c0}, !- Handle
  Perimeter_top_ZN_2,                     !- Name
  ,                                       !- Space Type Name
  ,                                       !- Default Construction Set Name
  ,                                       !- Default Schedule Set Name
  0,                                      !- Direction of Relative North {deg}
  0,                                      !- X Origin {m}
  0,                                      !- Y Origin {m}
  0,                                      !- Z Origin {m}
  ,                                       !- Building Story Name
  {d42183a9-4e4f-4133-b046-e98fba79fec8}, !- Thermal Zone Name
  Yes;                                    !- Part of Total Floor Area

OS:ThermostatSetpoint:DualSetpoint,
  {a22d1449-ccf0-49c7-bb8c-ee37d3782d77}, !- Handle
  {6c2b25be-2d47-4d86-8413-66afc72dc3e4}, !- Name
  {ea9e0d2d-ec13-4436-94a1-9c798b43ee2a}, !- Heating Setpoint Temperature Schedule Name
  {7c2e2867-50cf-4d59-bf0d-2c634301bdca}; !- Cooling Setpoint Temperature Schedule Name

OS:Surface,
  {fa99b0bc-2250-42c0-8cce-a15c385e42f3}, !- Handle
  TopFloor_Plenum_Floor_5,                !- Name
  Floor,                                  !- Surface Type
  {6496ca8c-0716-40e4-b74a-087376f0d02b}, !- Construction Name
  {133aa84e-1c20-4b55-9d03-6415b02542d4}, !- Space Name
  Surface,                                !- Outside Boundary Condition
  {0c20314a-e904-4ceb-badf-2ee946ecc7dc}, !- Outside Boundary Condition Object
  NoSun,                                  !- Sun Exposure
  NoWind,                                 !- Wind Exposure
  ,                                       !- View Factor to Ground
  ,                                       !- Number of Vertices
  45.3375, 28.7006, 10.668,               !- X,Y,Z Vertex 1 {m}
  45.3375, 4.5732, 10.668,                !- X,Y,Z Vertex 2 {m}
  4.5732, 4.5732, 10.668,                 !- X,Y,Z Vertex 3 {m}
  4.5732, 28.7006, 10.668;                !- X,Y,Z Vertex 4 {m}

OS:Construction,
  {6496ca8c-0716-40e4-b74a-087376f0d02b}, !- Handle
  DropCeiling,                            !- Name
  ,                                       !- Surface Rendering Name
  {3cb3abbf-4251-492a-85bc-c7b7a248230d}; !- Layer 1

OS:Material,
  {3cb3abbf-4251-492a-85bc-c7b7a248230d}, !- Handle
  Std AC02,                               !- Name
  MediumSmooth,                           !- Roughness
  0.0127,                                 !- Thickness {m}
  0.057,                                  !- Conductivity {W/m-K}
  288,                                    !- Density {kg/m3}
  1339,                                   !- Specific Heat {J/kg-K}
  0.9,                                    !- Thermal Absorptance
  0.7,                                    !- Solar Absorptance
  0.2;                                    !- Visible Absorptance

OS:ThermalZone,
  {08dff54e-a488-4199-98ae-ef179a188624}, !- Handle
  TopFloor_Plenum Thermal Zone,           !- Name
  1,                                      !- Multiplier
  ,                                       !- Ceiling Height {m}
  ,                                       !- Volume {m3}
  ,                                       !- Floor Area {m2}
  ,                                       !- Zone Inside Convection Algorithm
  ,                                       !- Zone Outside Convection Algorithm
  ,                                       !- Zone Conditioning Equipment List Name
  {557212bc-b58a-41dd-988c-cc842b00779e}, !- Zone Air Inlet Port List
  {c33dcb56-d65f-4bb9-8e8c-825654200f09}, !- Zone Air Exhaust Port List
  {9b45c53c-1402-4b80-85f8-ec2d5bf6f661}, !- Zone Air Node Name
  ,                                       !- Zone Return Air Node Name
  ,                                       !- Primary Daylighting Control Name
  ,                                       !- Fraction of Zone Controlled by Primary Daylighting Control
  ,                                       !- Secondary Daylighting Control Name
  ,                                       !- Fraction of Zone Controlled by Secondary Daylighting Control
  ,                                       !- Illuminance Map Name
  ,                                       !- Group Rendering Name
  ,                                       !- Thermostat Name
  No;                                     !- Use Ideal Air Loads

OS:Node,
  {1c0f1146-9ffd-4665-b40c-2b1089831d73}, !- Handle
  {281c6353-4320-4d5f-863b-9d44c99ef24c}, !- Name
  {9b45c53c-1402-4b80-85f8-ec2d5bf6f661}, !- Inlet Port
  ;                                       !- Outlet Port

OS:Connection,
  {9b45c53c-1402-4b80-85f8-ec2d5bf6f661}, !- Handle
  {3a474509-87f7-41be-8fd9-ac4555eaef59}, !- Name
  {08dff54e-a488-4199-98ae-ef179a188624}, !- Source Object
  11,                                     !- Outlet Port
  {1c0f1146-9ffd-4665-b40c-2b1089831d73}, !- Target Object
  2;                                      !- Inlet Port

OS:PortList,
  {557212bc-b58a-41dd-988c-cc842b00779e}, !- Handle
  {11a3010f-a5fa-444a-966c-3f71f3b75054}, !- Name
  {08dff54e-a488-4199-98ae-ef179a188624}; !- HVAC Component

OS:PortList,
  {c33dcb56-d65f-4bb9-8e8c-825654200f09}, !- Handle
  {fd9eadca-d396-40e2-b367-38bac08e50a2}, !- Name
  {08dff54e-a488-4199-98ae-ef179a188624}; !- HVAC Component

OS:Sizing:Zone,
  {d385e19b-2636-459f-ae88-45a58b5e4c92}, !- Handle
  {08dff54e-a488-4199-98ae-ef179a188624}, !- Zone or ZoneList Name
  14,                                     !- Zone Cooling Design Supply Air Temperature {C}
  40,                                     !- Zone Heating Design Supply Air Temperature {C}
  0.0085,                                 !- Zone Cooling Design Supply Air Humidity Ratio {kg-H2O/kg-air}
  0.008,                                  !- Zone Heating Design Supply Air Humidity Ratio {kg-H2O/kg-air}
  ,                                       !- Zone Heating Sizing Factor
  ,                                       !- Zone Cooling Sizing Factor
  DesignDay,                              !- Cooling Design Air Flow Method
  ,                                       !- Cooling Design Air Flow Rate {m3/s}
  ,                                       !- Cooling Minimum Air Flow per Zone Floor Area {m3/s-m2}
  ,                                       !- Cooling Minimum Air Flow {m3/s}
  ,                                       !- Cooling Minimum Air Flow Fraction
  DesignDay,                              !- Heating Design Air Flow Method