
OS:Version,
  {ebe20fd0-9043-4068-be0f-cc826e1a5833}, !- Handle
  1.3.0;                                  !- Version Identifier

OS:Site,
  {d6a9dfa9-bf15-4e22-8cd2-c22a64dcfcb5}, !- Handle
  USA IL-CHICAGO-OHARE,                   !- Name
  41.77,                                  !- Latitude {deg}
  -87.75,                                 !- Longitude {deg}
  -6,                                     !- Time Zone {hr}
  190,                                    !- Elevation {m}
  City;                                   !- Terrain

OS:SimulationControl,
  {f80a8c70-e762-4868-ab67-c5c0f29693b9}, !- Handle
  Yes,                                    !- Do Zone Sizing Calculation
  Yes,                                    !- Do System Sizing Calculation
  Yes,                                    !- Do Plant Sizing Calculation
  No,                                     !- Run Simulation for Sizing Periods
  Yes,                                    !- Run Simulation for Weather File Run Periods
  0.04,                                   !- Loads Convergence Tolerance Value
  0.2,                                    !- Temperature Convergence Tolerance Value {deltaC}
  FullInteriorAndExterior,                !- Solar Distribution
  25,                                     !- Maximum Number of Warmup Days
  6;                                      !- Minimum Number of Warmup Days

OS:Lights:Definition,
  {506a8f4e-6cae-4508-8875-dbc8e071b511}, !- Handle
  T S1 Apartment_Lights Definition,       !- Name
  Watts/Area,                             !- Design Level Calculation Method
  ,                                       !- Lighting Level {W}
  3.88,                                   !- Watts per Space Floor Area {W/m2}
  ,                                       !- Watts per Person {W/person}
  0.7,                                    !- Fraction Radiant
  0.2,                                    !- Fraction Visible
  0,                                      !- Return Air Fraction
  No;                                     !- Return Air Fraction Calculated from Plenum Temperature

OS:Lights,
  {7ca15e88-de14-4da4-b2b9-769f7159cd15}, !- Handle
  T S1 Apartment_Lights,                  !- Name
  {506a8f4e-6cae-4508-8875-dbc8e071b511}, !- Lights Definition Name
  {c378b352-0769-4628-b86e-b61c6c4a874f}, !- Space or SpaceType Name
  {7944d4b7-33b3-439d-9d6d-026c13116a8f}, !- Schedule Name
  1,                                      !- Fraction Replaceable
  ,                                       !- Multiplier
  General;                                !- End-Use Subcategory

OS:ThermalZone,
  {5a414da5-6394-4f1b-a90e-cc065b80e54b}, !- Handle
  T S1 Apartment Thermal Zone,            !- Name
  1,                                      !- Multiplier
  ,                                       !- Ceiling Height {m}
  ,                                       !- Volume {m3}
  ,                                       !- Floor Area {m2}
  ,                                       !- Zone Inside Convection Algorithm
  ,                                       !- Zone Outside Convection Algorithm
  ,                                       !- Zone Conditioning Equipment List Name
  {c3fd12ba-5e15-4acf-9d5b-7ca4b6421545}, !- Zone Air Inlet Port List
  {ad8b211c-c374-46e2-8061-8a5b27c7f48b}, !- Zone Air Exhaust Port List
  {b516f513-8048-4fa0-98e2-09cdc8c5c785}, !- Zone Air Node Name
  ,                                       !- Zone Return Air Node Name
  ,                                       !- Primary Daylighting Control Name
  ,                                       !- Fraction of Zone Controlled by Primary Daylighting Control
  ,                                       !- Secondary Daylighting Control Name
  ,                                       !- Fraction of Zone Controlled by Secondary Daylighting Control
  ,                                       !- Illuminance Map Name
  ,                                       !- Group Rendering Name
  {ba4d89e1-86a2-411a-844c-69889fb004a5}, !- Thermostat Name
  No;                                     !- Use Ideal Air Loads

OS:Node,
  {45cc86d4-740e-4a33-86ec-146fcfa8f154}, !- Handle
  {0bcb24a9-9c09-4d84-9ce7-327377c4a925}, !- Name
  {b516f513-8048-4fa0-98e2-09cdc8c5c785}, !- Inlet Port
  ;                                       !- Outlet Port

OS:Connection,
  {b516f513-8048-4fa0-98e2-09cdc8c5c785}, !- Handle
  {d5cf207f-5647-48ce-b114-da7591871ee4}, !- Name
  {5a414da5-6394-4f1b-a90e-cc065b80e54b}, !- Source Object
  11,                                     !- Outlet Port
  {45cc86d4-740e-4a33-86ec-146fcfa8f154}, !- Target Object
  2;                                      !- Inlet Port

OS:PortList,
  {c3fd12ba-5e15-4acf-9d5b-7ca4b6421545}, !- Handle
  {170b2ffd-abdb-4b1b-b9f6-d92d6020a6a5}, !- Name
  {5a414da5-6394-4f1b-a90e-cc065b80e54b}; !- HVAC Component

OS:PortList,
  {ad8b211c-c374-46e2-8061-8a5b27c7f48b}, !- Handle
  {c2798d23-c1b3-47dd-a678-f21b19a7da4d}, !- Name
  {5a414da5-6394-4f1b-a90e-cc065b80e54b}; !- HVAC Component

OS:Sizing:Zone,
  {754d8f1d-1eaf-44f6-9d78-2093b8214149}, !- Handle
  {5a414da5-6394-4f1b-a90e-cc065b80e54b}, !- Zone or ZoneList Name
  14,                                     !- Zone Cooling Design Supply Air Temperature {C}
  40,                                     !- Zone Heating Design Supply Air Temperature {C}
  0.0085,                                 !- Zone Cooling Design Supply Air Humidity Ratio {kg-H2O/kg-air}
  0.008,                                  !- Zone Heating Design Supply Air Humidity Ratio {kg-H2O/kg-air}
  ,                                       !- Zone Heating Sizing Factor
  ,                                       !- Zone Cooling Sizing Factor
  DesignDay,                              !- Cooling Design Air Flow Method
  ,                                       !- Cooling Design Air Flow Rate {m3/s}
  ,                                       !- Cooling Minimum Air Flow per Zone Floor Area {m3/s-m2}
  ,                                       !- Cooling Minimum Air Flow {m3/s}
  ,                                       !- Cooling Minimum Air Flow Fraction
  DesignDay,                              !- Heating Design Air Flow Method
  ,                                       !- Heating Design Air Flow Rate {m3/s}
  ,                                       !- Heating Maximum Air Flow per Zone Floor Area {m3/s-m2}
  ,                                       !- Heating Maximum Air Flow {m3/s}
  ,                                       !- Heating Maximum Air Flow Fraction
  ,                                       !- Design Zone Air Distribution Effectiveness in Cooling Mode
  ;                                       !- Design Zone Air Distribution Effectiveness in Heating Mode

OS:ZoneHVAC:EquipmentList,
  {cb305910-c237-460d-b1bb-fabf53a3b534}, !- Handle
  {13eebcc2-893a-4c77-ab81-e02627570afa}, !- Name
  {5a414da5-6394-4f1b-a90e-cc065b80e54b}; !- Thermal Zone

OS:Space,
  {c378b352-0769-4628-b86e-b61c6c4a874f}, !- Handle
  T S1 Apartment,                         !- Name
  ,                                       !- Space Type Name
  ,                                       !- Default Construction Set Name
  ,                                       !- Default Schedule Set Name
  0,                                      !- Direction of Relative North {deg}
  11.5818,                                !- X Origin {m}
  0,                                      !- Y Origin {m}
  9.1435,                                 !- Z Origin {m}
  ,                                       !- Building Story Name
  {5a414da5-6394-4f1b-a90e-cc065b80e54b}, !- Thermal Zone Name
  Yes;                                    !- Part of Total Floor Area

OS:ThermostatSetpoint:DualSetpoint,
  {ba4d89e1-86a2-411a-844c-69889fb004a5}, !- Handle
  {24ca2d95-a1df-41c1-9227-8681e77aa2c5}, !- Name
  {5a348d7f-a3cc-464a-b6ae-8a341cfbd9db}, !- Heating Setpoint Temperature Schedule Name
  {00e8656f-9ce3-4ea0-b853-3edb802ec61f}; !- Cooling Setpoint Temperature Schedule Name

OS:Schedule:Compact,
  {5a348d7f-a3cc-464a-b6ae-8a341cfbd9db}, !- Handle
  APT_HTGSETP_SCH,                        !- Name
  {f71f1d30-23d7-4856-8ac6-b88738e04fea}, !- Schedule Type Limits Name
  THROUGH: 12/31,                         !- Field 1
  FOR:AllDays,                            !- Field 2
  UNTIL: 24:00,                           !- Field 3
  21.1;                                   !- Field 4

OS:ScheduleTypeLimits,
  {f71f1d30-23d7-4856-8ac6-b88738e04fea}, !- Handle
  Temperature,                            !- Name
  -60,                                    !- Lower Limit Value {BasedOnField A4}
  200,                                    !- Upper Limit Value {BasedOnField A4}
  CONTINUOUS,                             !- Numeric Type
  Temperature;                            !- Unit Type

OS:Schedule:Compact,
  {00e8656f-9ce3-4ea0-b853-3edb802ec61f}, !- Handle
  APT_CLGSETP_SCH,                        !- Name
  {f71f1d30-23d7-4856-8ac6-b88738e04fea}, !- Schedule Type Limits Name
  THROUGH: 12/31,                         !- Field 1
  FOR:AllDays,                            !- Field 2
  UNTIL: 24:00,                           !- Field 3
  23.9;                                   !- Field 4

OS:Schedule:Compact,
  {7944d4b7-33b3-439d-9d6d-026c13116a8f}, !- Handle
  APT_LIGHT_SCH,                          !- Name
  {55d6e7f5-511d-4119-ad40-bfe96c7bc94f}, !- Schedule Type Limits Name
  Through: 12/31,                         !- Field 1
  For: AllDays,                           !- Field 2
  Until: 04:00,                           !- Field 3
  0.067,                                  !- Field 4
  Until: 05:00,                           !- Field 5
  0.187,                                  !- Field 6
  Until: 06:00,                           !- Field 7
  0.394,                                  !- Field 8
  Until: 07:00,                           !- Field 9
  0.440,                                  !- Field 10
  Until: 08:00,                           !- Field 11
  0.393,                                  !- Field 12
  Until: 09:00,                           !- Field 13
  0.172,                                  !- Field 14
  Until: 15:00,                           !- Field 15
  0.119,                                  !- Field 16
  Until: 16:00,                           !- Field 17
  0.206,                                  !- Field 18
  Until: 17:00,                           !- Field 19
  0.439,                                  !- Field 20
  Until: 18:00,                           !- Field 21
  0.616,                                  !- Field 22
  Until: 19:00,                           !- Field 23
  0.829,                                  !- Field 24
  Until: 20:00,                           !- Field 25
  0.986,                                  !- Field 26
  Until: 21:00,                           !- Field 27
  1.0,                                    !- Field 28
  Until: 22:00,                           !- Field 29
  0.692,                                  !- Field 30
  Until: 23:00,                           !- Field 31
  0.384,                                  !- Field 32
  Until: 24:00,                           !- Field 33
  0.160;                                  !- Field 34

OS:ScheduleTypeLimits,
  {55d6e7f5-511d-4119-ad40-bfe96c7bc94f}, !- Handle
  Fraction,                               !- Name
  0,                                      !- Lower Limit Value {BasedOnField A4}
  1,                                      !- Upper Limit Value {BasedOnField A4}
  CONTINUOUS;                             !- Numeric Type

OS:Curve:Biquadratic,
  {57fee475-022e-4454-96e5-ae0a4d90107c}, !- Handle
  Cool-EIR-fT,                            !- Name
  0.28687133,                             !- Coefficient1 Constant
  0.023902164,                            !- Coefficient2 x
  -0.000810648,                           !- Coefficient3 x**2
  0.013458546,                            !- Coefficient4 y
  0.0003389364,                           !- Coefficient5 y**2
  -0.0004870044,                          !- Coefficient6 x*y
  -100,                                   !- Minimum Value of x {BasedOnField A2}
  100,                                    !- Maximum Value of x {BasedOnField A2}
  -100,                                   !- Minimum Value of y {BasedOnField A3}
  100;                                    !- Maximum Value of y {BasedOnField A3}

OS:Surface,
  {3679c96d-77ad-409a-aa9e-e20362360e4d}, !- Handle
  t Roof SWA,                             !- Name
  RoofCeiling,                            !- Surface Type
  {7658f0c5-c040-4ada-982e-a37a76595ca9}, !- Construction Name
  {d78f4b41-ff29-4103-9db3-a7a20c09a5ba}, !- Space Name
  Outdoors,                               !- Outside Boundary Condition
  ,                                       !- Outside Boundary Condition Object
  SunExposed,                             !- Sun Exposure
  WindExposed,                            !- Wind Exposure
  ,                                       !- View Factor to Ground
  ,                                       !- Number of Vertices
  11.5818, 0, 3.0478,                     !- X,Y,Z Vertex 1 {m}
  11.5818, 7.6196, 3.0478,                !- X,Y,Z Vertex 2 {m}
  0, 7.6196, 3.0478,                      !- X,Y,Z Vertex 3 {m}
  0, 0, 3.0478;                           !- X,Y,Z Vertex 4 {m}

OS:Construction,
  {7658f0c5-c040-4ada-982e-a37a76595ca9}, !- Handle
  IEAD Res Roof,                          !- Name
  ,                                       !- Surface Rendering Name
  {f3892da3-018f-4ae9-8f35-0a4f1b427b60}, !- Layer 1
  {706420e5-c166-4307-bbe0-bed17951adec}, !- Layer 2
  {c4b4b14f-5ed2-4643-9685-1860ae275d86}; !- Layer 3

OS:Material,
  {f3892da3-018f-4ae9-8f35-0a4f1b427b60}, !- Handle
  Roof Membrane,                          !- Name
  VeryRough,                              !- Roughness
  0.0095,                                 !- Thickness {m}
  0.16,                                   !- Conductivity {W/m-K}
  1121.29,                                !- Density {kg/m3}
  1460,                                   !- Specific Heat {J/kg-K}
  0.9,                                    !- Thermal Absorptance
  0.7,                                    !- Solar Absorptance
  0.7;                                    !- Visible Absorptance

OS:Material,
  {706420e5-c166-4307-bbe0-bed17951adec}, !- Handle
  IEAD Res Roof Insulation,               !- Name
  MediumRough,                            !- Roughness
  0.127338688569477,                      !- Thickness {m}
  0.049,                                  !- Conductivity {W/m-K}
  265,                                    !- Density {kg/m3}
  836.8,                                  !- Specific Heat {J/kg-K}
  0.9,                                    !- Thermal Absorptance
  0.7,                                    !- Solar Absorptance
  0.7;                                    !- Visible Absorptance

OS:Material,
  {c4b4b14f-5ed2-4643-9685-1860ae275d86}, !- Handle
  Metal Decking,                          !- Name
  MediumSmooth,                           !- Roughness
  0.0015,                                 !- Thickness {m}
  45.006,                                 !- Conductivity {W/m-K}
  7680,                                   !- Density {kg/m3}
  418.4,                                  !- Specific Heat {J/kg-K}
  0.9,                                    !- Thermal Absorptance
  0.7,                                    !- Solar Absorptance
  0.3;                                    !- Visible Absorptance

OS:ThermalZone,
  {47ee773f-9c35-4e05-b31a-512e3e99169e}, !- Handle
  T SW Apartment Thermal Zone,            !- Name
  1,                                      !- Multiplier
  ,                                       !- Ceiling Height {m}
  ,                                       !- Volume {m3}
  ,                                       !- Floor Area {m2}
  ,                                       !- Zone Inside Convection Algorithm
  ,                                       !- Zone Outside Convection Algorithm
  ,                                       !- Zone Conditioning Equipment List Name
  {e746fd6b-4b63-4830-a622-0a90327f8da5}, !- Zone Air Inlet Port List
  {4aea3fb0-dc70-4f44-a5f5-c5edf631945b}, !- Zone Air Exhaust Port List
  {ab47a2b7-ff9f-419c-9f64-1c88828f1c60}, !- Zone Air Node Name
  ,                                       !- Zone Return Air Node Name
  ,                                       !- Primary Daylighting Control Name
  ,                                       !- Fraction of Zone Controlled by Primary Daylighting Control
  ,                                       !- Secondary Daylighting Control Name
  ,                                       !- Fraction of Zone Controlled by Secondary Daylighting Control
  ,                                       !- Illuminance Map Name
  ,                                       !- Group Rendering Name
  {0a3a1ce2-6173-4508-a997-1a027c0dc411}, !- Thermostat Name
  No;                                     !- Use Ideal Air Loads

OS:Node,
  {02b1edb1-a6f4-47c4-8a63-8b90ae0a5422}, !- Handle
  {f4469b19-52a7-48ce-ae13-1aade551e9c9}, !- Name
  {ab47a2b7-ff9f-419c-9f64-1c88828f1c60}, !- Inlet Port
  ;                                       !- Outlet Port

OS:Connection,
  {ab47a2b7-ff9f-419c-9f64-1c88828f1c60}, !- Handle
  {4e40eab0-e783-4b79-b6f6-47475b6f4d71}, !- Name
  {47ee773f-9c35-4e05-b31a-512e3e99169e}, !- Source Object
  11,                                     !- Outlet Port
  {02b1edb1-a6f4-47c4-8a63-8b90ae0a5422}, !- Target Object
  2;                                      !- Inlet Port

OS:PortList,
  {e746fd6b-4b63-4830-a622-0a90327f8da5}, !- Handle
  {7b495e4c-6a03-4e49-9e2d-1612e09dc53d}, !- Name
  {47ee773f-9c35-4e05-b31a-512e3e99169e}; !- HVAC Component

OS:PortList,
  {4aea3fb0-dc70-4f44-a5f5-c5edf631945b}, !- Handle
  {c245dc85-7a4a-4f07-a4de-bedda4485fff}, !- Name
  {47ee773f-9c35-4e05-b31a-512e3e99169e}; !- HVAC Component

OS:Sizing:Zone,
  {77e8217d-11a7-40f1-ab5c-f5efd17fb507}, !- Handle
  {47ee773f-9c35-4e05-b31a-512e3e99169e}, !- Zone or ZoneList Name
  14,                                     !- Zone Cooling Design Supply Air Temperature {C}
  40,                                     !- Zone Heating Design Supply Air Temperature {C}
  0.0085,                                 !- Zone Cooling Design Supply Air Humidity Ratio {kg-H2O/kg-air}
  0.008,                                  !- Zone Heating Design Supply Air Humidity Ratio {kg-H2O/kg-air}
  ,                                       !- Zone Heating Sizing Factor
  ,                                       !- Zone Cooling Sizing Factor
  DesignDay,                              !- Cooling Design Air Flow Method
  ,                                       !- Cooling Design Air Flow Rate {m3/s}
  ,                                       !- Cooling Minimum Air Flow per Zone Floor Area {m3/s-m2}
  ,                                       !- Cooling Minimum Air Flow {m3/s}
  ,                                       !- Cooling Minimum Air Flow Fraction
  DesignDay,                              !- Heating Design Air Flow Method
  ,                                       !- Heating Design Air Flow Rate {m3/s}
  ,                                       !- Heating Maximum Air Flow per Zone Floor Area {m3/s-m2}
  ,                                       !- Heating Maximum Air Flow {m3/s}
  ,                                       !- Heating Maximum Air Flow Fraction
  ,                                       !- Design Zone Air Distribution Effectiveness in Cooling Mode
  ;                                       !- Design Zone Air Distribution Effectiveness in Heating Mode

OS:ZoneHVAC:EquipmentList,
  {8870275c-393c-43ed-bd66-b4f13c94ef81}, !- Handle
  {67d37f69-8b3e-4b0d-87c9-25be134d991a}, !- Name
  {47ee773f-9c35-4e05-b31a-512e3e99169e}; !- Thermal Zone

OS:Space,
  {d78f4b41-ff29-4103-9db3-a7a20c09a5ba}, !- Handle
  T SW Apartment,                         !- Name
  ,                                       !- Space Type Name
  ,                                       !- Default Construction Set Name
  ,                                       !- Default Schedule Set Name
  0,                                      !- Direction of Relative North {deg}
  0,                                      !- X Origin {m}
  0,                                      !- Y Origin {m}
  9.1435,                                 !- Z Origin {m}
  ,                                       !- Building Story Name
  {47ee773f-9c35-4e05-b31a-512e3e99169e}, !- Thermal Zone Name
  Yes;                                    !- Part of Total Floor Area

OS:ThermostatSetpoint:DualSetpoint,
  {0a3a1ce2-6173-4508-a997-1a027c0dc411}, !- Handle
  {332d35cb-c401-4632-a787-fb2bdc228efa}, !- Name
  {5a348d7f-a3cc-464a-b6ae-8a341cfbd9db}, !- Heating Setpoint Temperature Schedule Name
  {00e8656f-9ce3-4ea0-b853-3edb802ec61f}; !- Cooling Setpoint Temperature Schedule Name

OS:Surface,
  {95f192cc-34f7-4a29-8405-0757bc4886d9}, !- Handle
  m WWall NEA,                            !- Name
  Wall,                                   !- Surface Type
  {91a1f992-71f7-465d-b15e-7b193434ca4d}, !- Construction Name
  {4d3275b2-42b1-4cd2-839d-36c5edac0cb6}, !- Space Name
  Surface,                                !- Outside Boundary Condition
  {b8049007-d07c-49b7-b4b5-066f5f78f002}, !- Outside Boundary Condition Object
  NoSun,                                  !- Sun Exposure
  NoWind,                                 !- Wind Exposure
  ,                                       !- View Factor to Ground
  ,                                       !- Number of Vertices
  0, 7.6196, 3.0478,                      !- X,Y,Z Vertex 1 {m}
  0, 7.6196, 0,                           !- X,Y,Z Vertex 2 {m}
  0, 0, 0,                                !- X,Y,Z Vertex 3 {m}
  0, 0, 3.0478;                           !- X,Y,Z Vertex 4 {m}

OS:Construction,
  {91a1f992-71f7-465d-b15e-7b193434ca4d}, !- Handle
  int-walls,                              !- Name
  ,                                       !- Surface Rendering Name
  {df13ce3c-628d-4832-a4be-38878dc7a0aa}, !- Layer 1
  {df13ce3c-628d-4832-a4be-38878dc7a0aa}; !- Layer 2

OS:Material,
  {df13ce3c-628d-4832-a4be-38878dc7a0aa}, !- Handle
  1/2IN Gypsum,                           !- Name
  Smooth,                                 !- Roughness
  0.0127,                                 !- Thickness {m}
  0.16,                                   !- Conductivity {W/m-K}
  784.9,                                  !- Density {kg/m3}
  830,                                    !- Specific Heat {J/kg-K}
  0.9,                                    !- Thermal Absorptance
  0.92,                                   !- Solar Absorptance
  0.92;                                   !- Visible Absorptance

OS:ThermalZone,
  {b9bd628b-7804-438f-8cfd-96b2fbc9cf65}, !- Handle
  M NE Apartment Thermal Zone,            !- Name
  2,                                      !- Multiplier
  ,                                       !- Ceiling Height {m}
  ,                                       !- Volume {m3}
  ,                                       !- Floor Area {m2}
  ,                                       !- Zone Inside Convection Algorithm
  ,                                       !- Zone Outside Convection Algorithm
  ,                                       !- Zone Conditioning Equipment List Name
  {8ba56355-b4bc-42b7-8cca-570ce2ab6863}, !- Zone Air Inlet Port List
  {895fdd0d-4915-44c5-ab3c-2a7cdeb74c6c}, !- Zone Air Exhaust Port List
  {5dd4e013-2dc0-4a56-a933-a7f6f44d3bfa}, !- Zone Air Node Name
  ,                                       !- Zone Return Air Node Name
  ,                                       !- Primary Daylighting Control Name
  ,                                       !- Fraction of Zone Controlled by Primary Daylighting Control
  ,                                       !- Secondary Daylighting Control Name
  ,                                       !- Fraction of Zone Controlled by Secondary Daylighting Control
  ,                                       !- Illuminance Map Name
  ,                                       !- Group Rendering Name
  {b95606da-be53-480a-82d9-18efe4804b8a}, !- Thermostat Name
  No;                                     !- Use Ideal Air Loads

OS:Node,
  {4425312c-f058-41c3-9aa9-33c6396815e2}, !- Handle
  {d5e005fe-0fe4-4ac4-99e1-763270849ce9}, !- Name
  {5dd4e013-2dc0-4a56-a933-a7f6f44d3bfa}, !- Inlet Port
  ;                                       !- Outlet Port

OS:Connection,
  {5dd4e013-2dc0-4a56-a933-a7f6f44d3bfa}, !- Handle
  {132301af-dff4-4d94-9345-b90b7ea0ae2c}, !- Name
  {b9bd628b-7804-438f-8cfd-96b2fbc9cf65}, !- Source Object
  11,                                     !- Outlet Port
  {4425312c-f058-41c3-9aa9-33c6396815e2}, !- Target Object
  2;                                      !- Inlet Port

OS:PortList,
  {8ba56355-b4bc-42b7-8cca-570ce2ab6863}, !- Handle
  {7dab9a19-0630-4316-b249-fe09ad75bfc7}, !- Name
  {b9bd628b-7804-438f-8cfd-96b2fbc9cf65}; !- HVAC Component

OS:PortList,
  {895fdd0d-4915-44c5-ab3c-2a7cdeb74c6c}, !- Handle
  {cca42937-5b86-43f6-9c3c-208e3b480c8b}, !- Name
  {b9bd628b-7804-438f-8cfd-96b2fbc9cf65}; !- HVAC Component

OS:Sizing:Zone,
  {a6b2185d-f3d4-4fd2-bab0-3fc349e62567}, !- Handle
  {b9bd628b-7804-438f-8cfd-96b2fbc9cf65}, !- Zone or ZoneList Name
  14,                                     !- Zone Cooling Design Supply Air Temperature {C}
  40,                                     !- Zone Heating Design Supply Air Temperature {C}
  0.0085,                                 !- Zone Cooling Design Supply Air Humidity Ratio {kg-H2O/kg-air}
  0.008,                                  !- Zone Heating Design Supply Air Humidity Ratio {kg-H2O/kg-air}
  ,                                       !- Zone Heating Sizing Factor
  ,                                       !- Zone Cooling Sizing Factor
  DesignDay,                              !- Cooling Design Air Flow Method
  ,                                       !- Cooling Design Air Flow Rate {m3/s}
  ,                                       !- Cooling Minimum Air Flow per Zone Floor Area {m3/s-m2}
  ,                                       !- Cooling Minimum Air Flow {m3/s}
  ,                                       !- Cooling Minimum Air Flow Fraction
  DesignDay,                              !- Heating Design Air Flow Method
  ,                                       !- Heating Design Air Flow Rate {m3/s}
  ,                                       !- Heating Maximum Air Flow per Zone Floor Area {m3/s-m2}
  ,                                       !- Heating Maximum Air Flow {m3/s}
  ,                                       !- Heating Maximum Air Flow Fraction
  ,                                       !- Design Zone Air Distribution Effectiveness in Cooling Mode
  ;                                       !- Design Zone Air Distribution Effectiveness in Heating Mode

OS:ZoneHVAC:EquipmentList,
  {3b9840a1-c961-4c8b-b1f3-090ff3a686dc}, !- Handle
  {b911bcd8-234a-4f26-8de7-19ee390489c7}, !- Name
  {b9bd628b-7804-438f-8cfd-96b2fbc9cf65}; !- Thermal Zone

OS:Space,
  {4d3275b2-42b1-4cd2-839d-36c5edac0cb6}, !- Handle
  M NE Apartment,                         !- Name
  ,                                       !- Space Type Name
  ,                                       !- Default Construction Set Name
  ,                                       !- Default Schedule Set Name
  0,                                      !- Direction of Relative North {deg}
  34.7455,                                !- X Origin {m}
  9.2959,                                 !- Y Origin {m}
  3.0478,                                 !- Z Origin {m}
  ,                                       !- Building Story Name
  {b9bd628b-7804-438f-8cfd-96b2fbc9cf65}, !- Thermal Zone Name
  Yes;                                    !- Part of Total Floor Area

OS:ThermostatSetpoint:DualSetpoint,
  {b95606da-be53-480a-82d9-18efe4804b8a}, !- Handle
  {79a180af-05ab-45af-a5dc-ea3b812e9afe}, !- Name
  {5a348d7f-a3cc-464a-b6ae-8a341cfbd9db}, !- Heating Setpoint Temperature Schedule Name
  {00e8656f-9ce3-4ea0-b853-3edb802ec61f}; !- Cooling Setpoint Temperature Schedule Name

OS:DesignSpecification:OutdoorAir,
  {cc1ed204-98ef-4bc5-809d-0376b13aeab8}, !- Handle
  SZ DSOA M SE Apartment,                 !- Name
  ,                                       !- Outdoor Air Method
  ,                                       !- Outdoor Air Flow per Person {m3/s-person}
  ,                                       !- Outdoor Air Flow per Floor Area {m3/s-m2}
  0.04248,                                !- Outdoor Air Flow Rate {m3/s}
  ,                                       !- Outdoor Air Flow Air Changes per Hour {1/hr}
  ;                                       !- Outdoor Air Flow Rate Fraction Schedule Name

OS:People:Definition,
  {deb2ef13-1b0d-49bb-922d-d2d448fbb0b7}, !- Handle
  M N2 Apartment People Definition,       !- Name
  People,                                 !- Number of People Calculation Method
  2.5,                                    !- Number of People {people}
  ,                                       !- People per Space Floor Area {person/m2}
  ,                                       !- Space Floor Area per Person {m2/person}
  0.3,                                    !- Fraction Radiant
  ,                                       !- Sensible Heat Fraction
  ,                                       !- Carbon Dioxide Generation Rate {m3/s-W}
  No,                                     !- Enable ASHRAE 55 Comfort Warnings
  ZoneAveraged,                           !- Mean Radiant Temperature Calculation Type
  FANGER;                                 !- Thermal Comfort Model Type 1

OS:People,
  {31dd40c5-50f5-43d1-846d-842bbe42ecdf}, !- Handle
  M N2 Apartment People,                  !- Name
  {deb2ef13-1b0d-49bb-922d-d2d448fbb0b7}, !- People Definition Name