
OS:Version,
  {a38d374f-083d-4ec7-8633-4a458825b51b}, !- Handle
  1.3.0;                                  !- Version Identifier

OS:Site,
  {41f96325-4863-4d70-a76f-028201b077dd}, !- Handle
  USA IL-CHICAGO-OHARE,                   !- Name
  41.77,                                  !- Latitude {deg}
  -87.75,                                 !- Longitude {deg}
  -6,                                     !- Time Zone {hr}
  190,                                    !- Elevation {m}
  City;                                   !- Terrain

OS:SimulationControl,
  {73c6c6c4-1bf0-4d90-8346-6f3efcc485c6}, !- Handle
  Yes,                                    !- Do Zone Sizing Calculation
  Yes,                                    !- Do System Sizing Calculation
  Yes,                                    !- Do Plant Sizing Calculation
  No,                                     !- Run Simulation for Sizing Periods
  Yes,                                    !- Run Simulation for Weather File Run Periods
  0.04,                                   !- Loads Convergence Tolerance Value
  0.2,                                    !- Temperature Convergence Tolerance Value {deltaC}
  FullInteriorAndExterior,                !- Solar Distribution
  25,                                     !- Maximum Number of Warmup Days
  6;                                      !- Minimum Number of Warmup Days

OS:InternalMass:Definition,
  {4e130089-4637-4302-af98-20a04aa0ccc8}, !- Handle
  Floor 3 Physical Therapy 2 Internal Mass Definition, !- Name
  {f833c5e7-d23d-4da2-bc6d-b85cdcc5166d}, !- Construction Name
  SurfaceArea,                            !- Design Level Calculation Method
  109.9972,                               !- Surface Area {m2}
  ,                                       !- Surface Area per Space Floor Area {dimensionless}
  ;                                       !- Surface Area per Person {m2/person}

OS:Construction,
  {f833c5e7-d23d-4da2-bc6d-b85cdcc5166d}, !- Handle
  InteriorFurnishings,                    !- Name
  ,                                       !- Surface Rendering Name
  {61d670b9-3bf4-401b-b4ee-28bbb123d97b}; !- Layer 1

OS:Material,
  {61d670b9-3bf4-401b-b4ee-28bbb123d97b}, !- Handle
  Std Wood 6inch,                         !- Name
  MediumSmooth,                           !- Roughness
  0.15,                                   !- Thickness {m}
  0.12,                                   !- Conductivity {W/m-K}
  540,                                    !- Density {kg/m3}
  1210,                                   !- Specific Heat {J/kg-K}
  0.9,                                    !- Thermal Absorptance
  0.7,                                    !- Solar Absorptance
  0.7;                                    !- Visible Absorptance

OS:InternalMass,
  {7a3e5e2c-5d72-4ead-97d8-ca4e3e22919e}, !- Handle
  Floor 3 Physical Therapy 2 Internal Mass, !- Name
  {4e130089-4637-4302-af98-20a04aa0ccc8}, !- Internal Mass Definition Name
  {f45c34b1-1775-484a-b565-0a81edaf9a9e}; !- Space or SpaceType Name

OS:ThermalZone,
  {25874efb-a37f-4c31-98ad-41539cf772ef}, !- Handle
  Floor 3 Physical Therapy 2 Thermal Zone, !- Name
  1,                                      !- Multiplier
  ,                                       !- Ceiling Height {m}
  ,                                       !- Volume {m3}
  ,                                       !- Floor Area {m2}
  ,                                       !- Zone Inside Convection Algorithm
  ,                                       !- Zone Outside Convection Algorithm
  ,                                       !- Zone Conditioning Equipment List Name
  {44f1e489-1406-481c-aa82-f1831150e475}, !- Zone Air Inlet Port List
  {ea6f8d86-10ca-48ab-85d9-4aab6316165d}, !- Zone Air Exhaust Port List
  {fab44ce5-a7bc-407b-9c8b-0bdb5df6b9e7}, !- Zone Air Node Name
  ,                                       !- Zone Return Air Node Name
  ,                                       !- Primary Daylighting Control Name
  ,                                       !- Fraction of Zone Controlled by Primary Daylighting Control
  ,                                       !- Secondary Daylighting Control Name
  ,                                       !- Fraction of Zone Controlled by Secondary Daylighting Control
  ,                                       !- Illuminance Map Name
  ,                                       !- Group Rendering Name
  {4cb4e711-6375-45e4-a85c-792aac878c5b}, !- Thermostat Name
  No;                                     !- Use Ideal Air Loads

OS:Node,
  {a0a0c7d3-9264-45cf-9ce9-8331e990251a}, !- Handle
  {0aef07d8-8879-403f-b468-f6529fb533d1}, !- Name
  {fab44ce5-a7bc-407b-9c8b-0bdb5df6b9e7}, !- Inlet Port
  ;                                       !- Outlet Port

OS:Connection,
  {fab44ce5-a7bc-407b-9c8b-0bdb5df6b9e7}, !- Handle
  {b8c09867-ede1-4e94-9772-fd1727ba8973}, !- Name
  {25874efb-a37f-4c31-98ad-41539cf772ef}, !- Source Object
  11,                                     !- Outlet Port
  {a0a0c7d3-9264-45cf-9ce9-8331e990251a}, !- Target Object
  2;                                      !- Inlet Port

OS:PortList,
  {44f1e489-1406-481c-aa82-f1831150e475}, !- Handle
  {b6f525fa-3224-4a26-a8f5-44b70512e6c1}, !- Name
  {25874efb-a37f-4c31-98ad-41539cf772ef}; !- HVAC Component

OS:PortList,
  {ea6f8d86-10ca-48ab-85d9-4aab6316165d}, !- Handle
  {fcd179a4-d2f1-4a36-a9a7-49b0a77aaa28}, !- Name
  {25874efb-a37f-4c31-98ad-41539cf772ef}; !- HVAC Component

OS:Sizing:Zone,
  {0e6dc1c4-8417-46a8-b45b-7f31ae5438f2}, !- Handle
  {25874efb-a37f-4c31-98ad-41539cf772ef}, !- Zone or ZoneList Name
  14,                                     !- Zone Cooling Design Supply Air Temperature {C}
  40,                                     !- Zone Heating Design Supply Air Temperature {C}
  0.0085,                                 !- Zone Cooling Design Supply Air Humidity Ratio {kg-H2O/kg-air}
  0.008,                                  !- Zone Heating Design Supply Air Humidity Ratio {kg-H2O/kg-air}
  ,                                       !- Zone Heating Sizing Factor
  ,                                       !- Zone Cooling Sizing Factor
  DesignDay,                              !- Cooling Design Air Flow Method
  ,                                       !- Cooling Design Air Flow Rate {m3/s}
  ,                                       !- Cooling Minimum Air Flow per Zone Floor Area {m3/s-m2}
  ,                                       !- Cooling Minimum Air Flow {m3/s}
  ,                                       !- Cooling Minimum Air Flow Fraction
  DesignDay,                              !- Heating Design Air Flow Method
  ,                                       !- Heating Design Air Flow Rate {m3/s}
  ,                                       !- Heating Maximum Air Flow per Zone Floor Area {m3/s-m2}
  ,                                       !- Heating Maximum Air Flow {m3/s}
  ,                                       !- Heating Maximum Air Flow Fraction
  ,                                       !- Design Zone Air Distribution Effectiveness in Cooling Mode
  ;                                       !- Design Zone Air Distribution Effectiveness in Heating Mode

OS:ZoneHVAC:EquipmentList,
  {63520314-58c5-40b8-a9de-68a61969dcdd}, !- Handle
  {f235de44-73d4-4f95-9417-c3ab8742efe2}, !- Name
  {25874efb-a37f-4c31-98ad-41539cf772ef}; !- Thermal Zone

OS:Space,
  {f45c34b1-1775-484a-b565-0a81edaf9a9e}, !- Handle
  Floor 3 Physical Therapy 2,             !- Name
  ,                                       !- Space Type Name
  ,                                       !- Default Construction Set Name
  ,                                       !- Default Schedule Set Name
  0,                                      !- Direction of Relative North {deg}
  35.052,                                 !- X Origin {m}
  10.9728,                                !- Y Origin {m}
  6.096,                                  !- Z Origin {m}
  ,                                       !- Building Story Name
  {25874efb-a37f-4c31-98ad-41539cf772ef}, !- Thermal Zone Name
  Yes;                                    !- Part of Total Floor Area

OS:ThermostatSetpoint:DualSetpoint,
  {4cb4e711-6375-45e4-a85c-792aac878c5b}, !- Handle
  {43de8507-ebb2-42b0-bbcb-b97e3d51cee6}, !- Name
  {e28808cf-6427-4d12-bf05-31f184559073}, !- Heating Setpoint Temperature Schedule Name
  {a6f96179-d01b-4af1-862c-18a592e39e0e}; !- Cooling Setpoint Temperature Schedule Name

OS:Schedule:Compact,
  {e28808cf-6427-4d12-bf05-31f184559073}, !- Handle
  HTGSETP_SCH,                            !- Name
  {134681e8-939c-408f-9547-0853399e4ba3}, !- Schedule Type Limits Name
  Through: 12/31,                         !- Field 1
  For: Weekdays SummerDesignDay,          !- Field 2
  Until: 05:00,                           !- Field 3
  18.3,                                   !- Field 4
  Until: 18:00,                           !- Field 5
  21.1,                                   !- Field 6
  Until: 24:00,                           !- Field 7
  18.3,                                   !- Field 8
  For: Saturdays WinterDesignDay,         !- Field 9
  Until: 07:00,                           !- Field 10
  18.3,                                   !- Field 11
  Until: 15:00,                           !- Field 12
  21.1,                                   !- Field 13
  Until: 24:00,                           !- Field 14
  18.3,                                   !- Field 15
  For: AllOtherDays,                      !- Field 16
  Until: 24:00,                           !- Field 17
  18.3;                                   !- Field 18

OS:ScheduleTypeLimits,
  {134681e8-939c-408f-9547-0853399e4ba3}, !- Handle
  Temperature,                            !- Name
  -60,                                    !- Lower Limit Value {BasedOnField A4}
  200,                                    !- Upper Limit Value {BasedOnField A4}
  CONTINUOUS,                             !- Numeric Type
  Temperature;                            !- Unit Type

OS:Schedule:Compact,
  {a6f96179-d01b-4af1-862c-18a592e39e0e}, !- Handle
  CLGSETP_SCH,                            !- Name
  {134681e8-939c-408f-9547-0853399e4ba3}, !- Schedule Type Limits Name
  Through: 12/31,                         !- Field 1
  For: Weekdays SummerDesignDay,          !- Field 2
  Until: 05:00,                           !- Field 3
  25.0,                                   !- Field 4
  Until: 18:00,                           !- Field 5
  22.2,                                   !- Field 6
  Until: 24:00,                           !- Field 7
  25.0,                                   !- Field 8
  For: Saturdays WinterDesignDay,         !- Field 9
  Until: 07:00,                           !- Field 10
  25.0,                                   !- Field 11
  Until: 15:00,                           !- Field 12
  22.2,                                   !- Field 13
  Until: 24:00,                           !- Field 14
  25.0,                                   !- Field 15
  For: AllOtherDays,                      !- Field 16
  Until: 24:00,                           !- Field 17
  25.0;                                   !- Field 18

OS:Surface,
  {8fd37ca7-833c-480e-9017-49380437d21c}, !- Handle
  695D6E,                                 !- Name
  RoofCeiling,                            !- Surface Type
  {36d2fb6d-8ce4-4d61-8795-30832f7123ea}, !- Construction Name
  {7c842ac5-69a8-43af-85cc-83d1f7435548}, !- Space Name
  Adiabatic,                              !- Outside Boundary Condition
  ,                                       !- Outside Boundary Condition Object
  NoSun,                                  !- Sun Exposure
  NoWind,                                 !- Wind Exposure
  ,                                       !- View Factor to Ground
  ,                                       !- Number of Vertices
  5.4864, 0, 3.048,                       !- X,Y,Z Vertex 1 {m}
  5.4864, 2.4384, 3.048,                  !- X,Y,Z Vertex 2 {m}
  0, 2.4384, 3.048,                       !- X,Y,Z Vertex 3 {m}
  0, 0, 3.048;                            !- X,Y,Z Vertex 4 {m}

OS:Construction,
  {36d2fb6d-8ce4-4d61-8795-30832f7123ea}, !- Handle
  INT-FLOOR-UNDERSIDE,                    !- Name
  ,                                       !- Surface Rendering Name
  {a6ec9c55-5f7e-43cc-944d-e62de1b92fc1}, !- Layer 1
  {04191614-5c28-4117-87fa-d614fe8efa90}; !- Layer 2

OS:Material:NoMass,
  {a6ec9c55-5f7e-43cc-944d-e62de1b92fc1}, !- Handle
  CP02 CARPET PAD,                        !- Name
  VeryRough,                              !- Roughness
  0.2165,                                 !- Thermal Resistance {m2-K/W}
  0.9,                                    !- Thermal Absorptance
  0.7,                                    !- Solar Absorptance
  0.8;                                    !- Visible Absorptance

OS:Material,
  {04191614-5c28-4117-87fa-d614fe8efa90}, !- Handle
  MAT-CC05 4 HW CONCRETE,                 !- Name
  Rough,                                  !- Roughness
  0.1016,                                 !- Thickness {m}
  1.311,                                  !- Conductivity {W/m-K}
  2240,                                   !- Density {kg/m3}
  836.8,                                  !- Specific Heat {J/kg-K}
  0.9,                                    !- Thermal Absorptance
  0.7,                                    !- Solar Absorptance
  0.7;                                    !- Visible Absorptance

OS:ThermalZone,
  {b6af999c-076c-4f4a-b4b4-eaf0c5ca0917}, !- Handle
  Floor 2 Storage 3 Thermal Zone,         !- Name
  1,                                      !- Multiplier
  ,                                       !- Ceiling Height {m}
  ,                                       !- Volume {m3}
  ,                                       !- Floor Area {m2}
  ,                                       !- Zone Inside Convection Algorithm
  ,                                       !- Zone Outside Convection Algorithm
  ,                                       !- Zone Conditioning Equipment List Name
  {3a6c52a4-607b-4bbc-9d02-e4ac3a4a9a86}, !- Zone Air Inlet Port List
  {2de49062-eadc-424d-8fac-c927608c9acd}, !- Zone Air Exhaust Port List
  {f1d936df-6198-4d5d-9a84-f9a426b0f91b}, !- Zone Air Node Name
  ,                                       !- Zone Return Air Node Name
  ,                                       !- Primary Daylighting Control Name
  ,                                       !- Fraction of Zone Controlled by Primary Daylighting Control
  ,                                       !- Secondary Daylighting Control Name
  ,                                       !- Fraction of Zone Controlled by Secondary Daylighting Control
  ,                                       !- Illuminance Map Name
  ,                                       !- Group Rendering Name
  ,                                       !- Thermostat Name
  No;                                     !- Use Ideal Air Loads

OS:Node,
  {789cc622-dd02-4cf1-8974-304b3b6ade31}, !- Handle
  {baf51b8c-1c69-4c58-b9aa-7b1310238628}, !- Name
  {f1d936df-6198-4d5d-9a84-f9a426b0f91b}, !- Inlet Port
  ;                                       !- Outlet Port

OS:Connection,
  {f1d936df-6198-4d5d-9a84-f9a426b0f91b}, !- Handle
  {4d732936-84c1-437a-842d-9e3e68e73714}, !- Name
  {b6af999c-076c-4f4a-b4b4-eaf0c5ca0917}, !- Source Object
  11,                                     !- Outlet Port
  {789cc622-dd02-4cf1-8974-304b3b6ade31}, !- Target Object
  2;                                      !- Inlet Port

OS:PortList,
  {3a6c52a4-607b-4bbc-9d02-e4ac3a4a9a86}, !- Handle
  {7b357e26-aaec-4d93-ac60-740d0422b401}, !- Name
  {b6af999c-076c-4f4a-b4b4-eaf0c5ca0917}; !- HVAC Component

OS:PortList,
  {2de49062-eadc-424d-8fac-c927608c9acd}, !- Handle
  {f0dcc31c-5532-44e0-9a1e-263fa1a87f34}, !- Name
  {b6af999c-076c-4f4a-b4b4-eaf0c5ca0917}; !- HVAC Component

OS:Sizing:Zone,
  {ab43894d-25f9-4f24-954d-48866f789316}, !- Handle
  {b6af999c-076c-4f4a-b4b4-eaf0c5ca0917}, !- Zone or ZoneList Name
  14,                                     !- Zone Cooling Design Supply Air Temperature {C}
  40,                                     !- Zone Heating Design Supply Air Temperature {C}
  0.0085,                                 !- Zone Cooling Design Supply Air Humidity Ratio {kg-H2O/kg-air}
  0.008,                                  !- Zone Heating Design Supply Air Humidity Ratio {kg-H2O/kg-air}
  ,                                       !- Zone Heating Sizing Factor
  ,                                       !- Zone Cooling Sizing Factor
  DesignDay,                              !- Cooling Design Air Flow Method
  ,                                       !- Cooling Design Air Flow Rate {m3/s}
  ,                                       !- Cooling Minimum Air Flow per Zone Floor Area {m3/s-m2}
  ,                                       !- Cooling Minimum Air Flow {m3/s}
  ,                                       !- Cooling Minimum Air Flow Fraction
  DesignDay,                              !- Heating Design Air Flow Method
  ,                                       !- Heating Design Air Flow Rate {m3/s}
  ,                                       !- Heating Maximum Air Flow per Zone Floor Area {m3/s-m2}
  ,                                       !- Heating Maximum Air Flow {m3/s}
  ,                                       !- Heating Maximum Air Flow Fraction
  ,                                       !- Design Zone Air Distribution Effectiveness in Cooling Mode
  ;                                       !- Design Zone Air Distribution Effectiveness in Heating Mode

OS:ZoneHVAC:EquipmentList,
  {eb8185b4-f2b5-42d9-958b-d24fedbf8610}, !- Handle
  {a12c90f0-b9f8-478b-bed4-af74a8203318}, !- Name
  {b6af999c-076c-4f4a-b4b4-eaf0c5ca0917}; !- Thermal Zone

OS:Space,
  {7c842ac5-69a8-43af-85cc-83d1f7435548}, !- Handle
  Floor 2 Storage 3,                      !- Name
  ,                                       !- Space Type Name
  ,                                       !- Default Construction Set Name
  ,                                       !- Default Schedule Set Name
  0,                                      !- Direction of Relative North {deg}
  23.4696,                                !- X Origin {m}
  21.336,                                 !- Y Origin {m}
  3.048,                                  !- Z Origin {m}
  ,                                       !- Building Story Name
  {b6af999c-076c-4f4a-b4b4-eaf0c5ca0917}, !- Thermal Zone Name
  Yes;                                    !- Part of Total Floor Area

OS:Surface,
  {6b8f0ff1-b0c2-46c3-b161-dfb2c775b2ec}, !- Handle
  3F71D3,                                 !- Name
  Wall,                                   !- Surface Type
  {c2c72dea-532b-416c-a7f0-a8111e00a956}, !- Construction Name
  {f2d1d898-0d5f-46f7-9edf-f92433d919cb}, !- Space Name
  Adiabatic,                              !- Outside Boundary Condition
  ,                                       !- Outside Boundary Condition Object
  NoSun,                                  !- Sun Exposure
  NoWind,                                 !- Wind Exposure
  ,                                       !- View Factor to Ground
  ,                                       !- Number of Vertices
  0, 0, 3.048,                            !- X,Y,Z Vertex 1 {m}
  0, 0, 0,                                !- X,Y,Z Vertex 2 {m}
  -2.7432, 0, 0,                          !- X,Y,Z Vertex 3 {m}
  -2.7432, 0, 3.048;                      !- X,Y,Z Vertex 4 {m}

OS:Construction,
  {c2c72dea-532b-416c-a7f0-a8111e00a956}, !- Handle
  int-walls,                              !- Name
  ,                                       !- Surface Rendering Name
  {b0c1a4fa-f109-4fe9-b985-c3ee83583b03}, !- Layer 1
  {b0c1a4fa-f109-4fe9-b985-c3ee83583b03}; !- Layer 2

OS:Material,
  {b0c1a4fa-f109-4fe9-b985-c3ee83583b03}, !- Handle
  1/2IN Gypsum,                           !- Name
  Smooth,                                 !- Roughness
  0.0127,                                 !- Thickness {m}
  0.16,                                   !- Conductivity {W/m-K}
  784.9,                                  !- Density {kg/m3}
  830,                                    !- Specific Heat {J/kg-K}
  0.9,                                    !- Thermal Absorptance
  0.92,                                   !- Solar Absorptance
  0.92;                                   !- Visible Absorptance

OS:ThermalZone,
  {11744337-d869-4411-98d7-f6423da5bc57}, !- Handle
  Floor 1 Humid Thermal Zone,             !- Name
  1,                                      !- Multiplier
  ,                                       !- Ceiling Height {m}
  ,                                       !- Volume {m3}
  ,                                       !- Floor Area {m2}
  ,                                       !- Zone Inside Convection Algorithm
  ,                                       !- Zone Outside Convection Algorithm
  ,                                       !- Zone Conditioning Equipment List Name
  {7c7cbf38-4c36-4d19-834a-d381a76892c3}, !- Zone Air Inlet Port List
  {4bb1870a-6481-4b2d-929e-e332fdd42523}, !- Zone Air Exhaust Port List
  {f02f92b8-2708-440c-a47f-9583b6f7b586}, !- Zone Air Node Name
  ,                                       !- Zone Return Air Node Name
  ,                                       !- Primary Daylighting Control Name
  ,                                       !- Fraction of Zone Controlled by Primary Daylighting Control
  ,                                       !- Secondary Daylighting Control Name
  ,                                       !- Fraction of Zone Controlled by Secondary Daylighting Control
  ,                                       !- Illuminance Map Name
  ,                                       !- Group Rendering Name
  {4cb4e711-6375-45e4-a85c-792aac878c5b}, !- Thermostat Name
  No;                                     !- Use Ideal Air Loads

OS:Node,
  {bde620f3-c0d9-481d-b0a5-016124e9c1e7}, !- Handle
  {8be9b80b-a00c-4efd-9ccc-cd02eb4b57a4}, !- Name
  {f02f92b8-2708-440c-a47f-9583b6f7b586}, !- Inlet Port
  ;                                       !- Outlet Port

OS:Connection,
  {f02f92b8-2708-440c-a47f-9583b6f7b586}, !- Handle
  {b101a285-9a61-4d91-a678-173d1420ac94}, !- Name
  {11744337-d869-4411-98d7-f6423da5bc57}, !- Source Object
  11,                                     !- Outlet Port
  {bde620f3-c0d9-481d-b0a5-016124e9c1e7}, !- Target Object
  2;                                      !- Inlet Port

OS:PortList,
  {7c7cbf38-4c36-4d19-834a-d381a76892c3}, !- Handle
  {14dfcffb-abca-4008-9664-963a2557e827}, !- Name
  {11744337-d869-4411-98d7-f6423da5bc57}; !- HVAC Component

OS:PortList,
  {4bb1870a-6481-4b2d-929e-e332fdd42523}, !- Handle
  {0d46b601-ab0e-46b4-b1b5-ffa5041b839b}, !- Name
  {11744337-d869-4411-98d7-f6423da5bc57}; !- HVAC Component

OS:Sizing:Zone,
  {6a24e338-0180-45d8-9b74-5f3983681b6e}, !- Handle
  {11744337-d869-4411-98d7-f6423da5bc57}, !- Zone or ZoneList Name
  14,                                     !- Zone Cooling Design Supply Air Temperature {C}
  40,                                     !- Zone Heating Design Supply Air Temperature {C}
  0.0085,                                 !- Zone Cooling Design Supply Air Humidity Ratio {kg-H2O/kg-air}
  0.008,                                  !- Zone Heating Design Supply Air Humidity Ratio {kg-H2O/kg-air}
  ,                                       !- Zone Heating Sizing Factor
  ,                                       !- Zone Cooling Sizing Factor
  DesignDay,                              !- Cooling Design Air Flow Method
  ,                                       !- Cooling Design Air Flow Rate {m3/s}
  ,                                       !- Cooling Minimum Air Flow per Zone Floor Area {m3/s-m2}
  ,                                       !- Cooling Minimum Air Flow {m3/s}
  ,                                       !- Cooling Minimum Air Flow Fraction
  DesignDay,                              !- Heating Design Air Flow Method
  ,                                       !- Heating Design Air Flow Rate {m3/s}
  ,                                       !- Heating Maximum Air Flow per Zone Floor Area {m3/s-m2}
  ,                                       !- Heating Maximum Air Flow {m3/s}
  ,                                       !- Heating Maximum Air Flow Fraction
  ,                                       !- Design Zone Air Distribution Effectiveness in Cooling Mode
  ;                                       !- Design Zone Air Distribution Effectiveness in Heating Mode

OS:ZoneHVAC:EquipmentList,
  {91672c01-ad71-4b9c-b838-9a8e6836f984}, !- Handle
  {15377350-a795-4dd1-91a4-67078dea6409}, !- Name
  {11744337-d869-4411-98d7-f6423da5bc57}; !- Thermal Zone

OS:Space,
  {f2d1d898-0d5f-46f7-9edf-f92433d919cb}, !- Handle
  Floor 1 Humid,                          !- Name
  ,                                       !- Space Type Name
  ,                                       !- Default Construction Set Name
  ,                                       !- Default Schedule Set Name
  0,                                      !- Direction of Relative North {deg}
  32.004,                                 !- X Origin {m}
  14.9352,                                !- Y Origin {m}
  0,                                      !- Z Origin {m}
  ,                                       !- Building Story Name
  {11744337-d869-4411-98d7-f6423da5bc57}, !- Thermal Zone Name
  Yes;                                    !- Part of Total Floor Area

OS:Lights:Definition,
  {8e9a1c47-c5d0-4f87-84b2-a060bef9bc88}, !- Handle
  Floor 1 Procedure Room_Lights Definition, !- Name
  Watts/Area,                             !- Design Level Calculation Method
  ,                                       !- Lighting Level {W}
  23.68,                                  !- Watts per Space Floor Area {W/m2}
  ,                                       !- Watts per Person {W/person}
  0.7,                                    !- Fraction Radiant
  0.2,                                    !- Fraction Visible
  0,                                      !- Return Air Fraction
  No;                                     !- Return Air Fraction Calculated from Plenum Temperature

OS:Lights,
  {1285044b-0c62-4e3a-b7ae-22641798db33}, !- Handle
  Floor 1 Procedure Room_Lights,          !- Name
  {8e9a1c47-c5d0-4f87-84b2-a060bef9bc88}, !- Lights Definition Name
  {bd01f40d-1ceb-4690-9255-6ed51f099658}, !- Space or SpaceType Name
  {c4dcb7f0-81ab-4705-94db-d1f11fd9abc1}, !- Schedule Name
  1,                                      !- Fraction Replaceable
  ,                                       !- Multiplier
  General;                                !- End-Use Subcategory

OS:ThermalZone,
  {ac06b9a5-1816-48f6-990f-e231da00c238}, !- Handle
  Floor 1 Procedure Room Thermal Zone,    !- Name
  1,                                      !- Multiplier
  ,                                       !- Ceiling Height {m}
  ,                                       !- Volume {m3}
  ,                                       !- Floor Area {m2}
  ,                                       !- Zone Inside Convection Algorithm
  ,                                       !- Zone Outside Convection Algorithm
  ,                                       !- Zone Conditioning Equipment List Name
  {3328d4c3-7224-4908-b4e1-61e4a3ae55b5}, !- Zone Air Inlet Port List
  {d5108da6-45a6-48a8-86ac-4011f56beec6}, !- Zone Air Exhaust Port List
  {2b292f77-9ab2-4156-a9b8-94ae3dde0853}, !- Zone Air Node Name
  ,                                       !- Zone Return Air Node Name
  ,                                       !- Primary Daylighting Control Name
  ,                                       !- Fraction of Zone Controlled by Primary Daylighting Control
  ,                                       !- Secondary Daylighting Control Name
  ,                                       !- Fraction of Zone Controlled by Secondary Daylighting Control
  ,                                       !- Illuminance Map Name
  ,                                       !- Group Rendering Name
  {4cb4e711-6375-45e4-a85c-792aac878c5b}, !- Thermostat Name
  No;                                     !- Use Ideal Air Loads

OS:Node,
  {930b15b3-0cac-42d3-9a6f-849b4699fd2f}, !- Handle
  {3900ebab-e441-475f-a004-4e661d617051}, !- Name
  {2b292f77-9ab2-4156-a9b8-94ae3dde0853}, !- Inlet Port
  ;                                       !- Outlet Port

OS:Connection,
  {2b292f77-9ab2-4156-a9b8-94ae3dde0853}, !- Handle
  {c787984a-9df2-42c6-9292-cb127b4bddcd}, !- Name
  {ac06b9a5-1816-48f6-990f-e231da00c238}, !- Source Object
  11,                                     !- Outlet Port
  {930b15b3-0cac-42d3-9a6f-849b4699fd2f}, !- Target Object
  2;                                      !- Inlet Port

OS:PortList,
  {3328d4c3-7224-4908-b4e1-61e4a3ae55b5}, !- Handle
  {eeca96b4-d18a-42a2-bc8a-184cdf624f6b}, !- Name
  {ac06b9a5-1816-48f6-990f-e231da00c238}; !- HVAC Component

OS:PortList,
  {d5108da6-45a6-48a8-86ac-4011f56beec6}, !- Handle
  {df082ebe-18da-4366-9b34-e144680dc234}, !- Name
  {ac06b9a5-1816-48f6-990f-e231da00c238}; !- HVAC Component

OS:Sizing:Zone,
  {1de30864-8933-4ef1-abdf-df4c9c788de1}, !- Handle
  {ac06b9a5-1816-48f6-990f-e231da00c238}, !- Zone or ZoneList Name
  14,                                     !- Zone Cooling Design Supply Air Temperature {C}
  40,                                     !- Zone Heating Design Supply Air Temperature {C}
  0.0085,                                 !- Zone Cooling Design Supply Air Humidity Ratio {kg-H2O/kg-air}
  0.008,                                  !- Zone Heating Design Supply Air Humidity Ratio {kg-H2O/kg-air}
  ,                                       !- Zone Heating Sizing Factor
  ,                                       !- Zone Cooling Sizing Factor
  DesignDay,                              !- Cooling Design Air Flow Method
  ,                                       !- Cooling Design Air Flow Rate {m3/s}