
OS:Version,
  {ded35db4-bc1a-4a48-a9d6-00c82beec889}, !- Handle
  1.3.0;                                  !- Version Identifier

OS:Site,
  {5667a2d3-cf13-4674-b4a5-b7534bf5751c}, !- Handle
  USA IL-CHICAGO-OHARE,                   !- Name
  41.77,                                  !- Latitude {deg}
  -87.75,                                 !- Longitude {deg}
  -6,                                     !- Time Zone {hr}
  190,                                    !- Elevation {m}
  City;                                   !- Terrain

OS:SimulationControl,
  {7471b4e8-cbdf-47f8-9049-3fe9de634cf2}, !- Handle
  Yes,                                    !- Do Zone Sizing Calculation
  Yes,                                    !- Do System Sizing Calculation
  Yes,                                    !- Do Plant Sizing Calculation
  No,                                     !- Run Simulation for Sizing Periods
  Yes,                                    !- Run Simulation for Weather File Run Periods
  0.04,                                   !- Loads Convergence Tolerance Value
  0.2,                                    !- Temperature Convergence Tolerance Value {deltaC}
  FullInteriorAndExterior,                !- Solar Distribution
  25,                                     !- Maximum Number of Warmup Days
  6;                                      !- Minimum Number of Warmup Days

OS:Lights:Definition,
  {44b7316a-835c-40c3-abe0-e7c5fee1a208}, !- Handle
  Mult_Class_1_Pod_1_ZN_1_FLR_1_Lights Definition, !- Name
  Watts/Area,                             !- Design Level Calculation Method
  ,                                       !- Lighting Level {W}
  15.06,                                  !- Watts per Space Floor Area {W/m2}
  ,                                       !- Watts per Person {W/person}
  0.37,                                   !- Fraction Radiant
  0.2,                                    !- Fraction Visible
  0,                                      !- Return Air Fraction
  No;                                     !- Return Air Fraction Calculated from Plenum Temperature

OS:Lights,
  {3580f472-788a-4764-b996-4b535a7e9407}, !- Handle
  Mult_Class_1_Pod_1_ZN_1_FLR_1_Lights,   !- Name
  {44b7316a-835c-40c3-abe0-e7c5fee1a208}, !- Lights Definition Name
  {fd4d9f94-4ec2-485d-8ed2-2cbad0b32ebd}, !- Space or SpaceType Name
  {e1dc5e58-df9b-4085-937d-bd8b6bce4776}, !- Schedule Name
  1,                                      !- Fraction Replaceable
  ,                                       !- Multiplier
  General;                                !- End-Use Subcategory

OS:ThermalZone,
  {f980ce25-3bbb-4435-9068-9f43db676c8d}, !- Handle
  Mult_Class_1_Pod_1_ZN_1_FLR_1 Thermal Zone, !- Name
  1,                                      !- Multiplier
  ,                                       !- Ceiling Height {m}
  ,                                       !- Volume {m3}
  ,                                       !- Floor Area {m2}
  ,                                       !- Zone Inside Convection Algorithm
  ,                                       !- Zone Outside Convection Algorithm
  ,                                       !- Zone Conditioning Equipment List Name
  {c7990328-a2c1-4c18-a3ea-f1ceaf8b60c0}, !- Zone Air Inlet Port List
  {27a22a66-358b-479a-b30a-89f8fd6f7752}, !- Zone Air Exhaust Port List
  {dd298108-8095-407a-86b1-b0ac2105ade4}, !- Zone Air Node Name
  ,                                       !- Zone Return Air Node Name
  ,                                       !- Primary Daylighting Control Name
  ,                                       !- Fraction of Zone Controlled by Primary Daylighting Control
  ,                                       !- Secondary Daylighting Control Name
  ,                                       !- Fraction of Zone Controlled by Secondary Daylighting Control
  ,                                       !- Illuminance Map Name
  ,                                       !- Group Rendering Name
  {afc5742a-d289-4b9a-bdd1-e459a64e683b}, !- Thermostat Name
  No;                                     !- Use Ideal Air Loads

OS:Node,
  {d712fb23-4d4a-4860-ae1f-254c7dcf717b}, !- Handle
  {307f2012-65b2-4520-a2b1-c3f90406eae4}, !- Name
  {dd298108-8095-407a-86b1-b0ac2105ade4}, !- Inlet Port
  ;                                       !- Outlet Port

OS:Connection,
  {dd298108-8095-407a-86b1-b0ac2105ade4}, !- Handle
  {acf0854d-b8fc-4e1c-aa40-8e8010e7ff6e}, !- Name
  {f980ce25-3bbb-4435-9068-9f43db676c8d}, !- Source Object
  11,                                     !- Outlet Port
  {d712fb23-4d4a-4860-ae1f-254c7dcf717b}, !- Target Object
  2;                                      !- Inlet Port

OS:PortList,
  {c7990328-a2c1-4c18-a3ea-f1ceaf8b60c0}, !- Handle
  {95c8b948-7c69-4af3-b6c9-0369ad3c4b06}, !- Name
  {f980ce25-3bbb-4435-9068-9f43db676c8d}; !- HVAC Component

OS:PortList,
  {27a22a66-358b-479a-b30a-89f8fd6f7752}, !- Handle
  {0f05c1cd-e2a3-408e-96bd-2df37f8895ed}, !- Name
  {f980ce25-3bbb-4435-9068-9f43db676c8d}; !- HVAC Component

OS:Sizing:Zone,
  {582d9ed3-ff16-4d66-8415-5752914282b4}, !- Handle
  {f980ce25-3bbb-4435-9068-9f43db676c8d}, !- Zone or ZoneList Name
  14,                                     !- Zone Cooling Design Supply Air Temperature {C}
  40,                                     !- Zone Heating Design Supply Air Temperature {C}
  0.0085,                                 !- Zone Cooling Design Supply Air Humidity Ratio {kg-H2O/kg-air}
  0.008,                                  !- Zone Heating Design Supply Air Humidity Ratio {kg-H2O/kg-air}
  ,                                       !- Zone Heating Sizing Factor
  ,                                       !- Zone Cooling Sizing Factor
  DesignDay,                              !- Cooling Design Air Flow Method
  ,                                       !- Cooling Design Air Flow Rate {m3/s}
  ,                                       !- Cooling Minimum Air Flow per Zone Floor Area {m3/s-m2}
  ,                                       !- Cooling Minimum Air Flow {m3/s}
  ,                                       !- Cooling Minimum Air Flow Fraction
  DesignDay,                              !- Heating Design Air Flow Method
  ,                                       !- Heating Design Air Flow Rate {m3/s}
  ,                                       !- Heating Maximum Air Flow per Zone Floor Area {m3/s-m2}
  ,                                       !- Heating Maximum Air Flow {m3/s}
  ,                                       !- Heating Maximum Air Flow Fraction
  ,                                       !- Design Zone Air Distribution Effectiveness in Cooling Mode
  ;                                       !- Design Zone Air Distribution Effectiveness in Heating Mode

OS:ZoneHVAC:EquipmentList,
  {95f27f33-9866-4d6d-9551-bb9833baecb5}, !- Handle
  {4c911df2-ad17-4b8c-821f-f4477a24eb4c}, !- Name
  {f980ce25-3bbb-4435-9068-9f43db676c8d}; !- Thermal Zone

OS:Space,
  {fd4d9f94-4ec2-485d-8ed2-2cbad0b32ebd}, !- Handle
  Mult_Class_1_Pod_1_ZN_1_FLR_1,          !- Name
  ,                                       !- Space Type Name
  ,                                       !- Default Construction Set Name
  ,                                       !- Default Schedule Set Name
  0,                                      !- Direction of Relative North {deg}
  -53,                                    !- X Origin {m}
  0,                                      !- Y Origin {m}
  0,                                      !- Z Origin {m}
  ,                                       !- Building Story Name
  {f980ce25-3bbb-4435-9068-9f43db676c8d}, !- Thermal Zone Name
  Yes;                                    !- Part of Total Floor Area

OS:ThermostatSetpoint:DualSetpoint,
  {afc5742a-d289-4b9a-bdd1-e459a64e683b}, !- Handle
  {6ccb14db-0c5c-47cb-9608-19b46ac60ae9}, !- Name
  {bf606983-facd-47f9-b51d-53c2759aeea6}, !- Heating Setpoint Temperature Schedule Name
  {edd3ef06-4629-4b30-8d7d-baa738634a94}; !- Cooling Setpoint Temperature Schedule Name

OS:Schedule:Compact,
  {bf606983-facd-47f9-b51d-53c2759aeea6}, !- Handle
  HTGSETP_SCH,                            !- Name
  {ba7c14be-080a-49dd-8ec1-4f302a206b64}, !- Schedule Type Limits Name
  Through: 6/30,                          !- Field 1
  For: WinterDesignDay,                   !- Field 2
  Until: 24:00,                           !- Field 3
  21,                                     !- Field 4
  For: WeekEnds Holidays SummerDesignDay, !- Field 5
  Until: 24:00,                           !- Field 6
  16,                                     !- Field 7
  For: AllOtherDays,                      !- Field 8
  Until: 06:00,                           !- Field 9
  16,                                     !- Field 10
  Until: 21:00,                           !- Field 11
  21,                                     !- Field 12
  Until: 24:00,                           !- Field 13
  16,                                     !- Field 14
  Through: 9/1,                           !- Field 15
  For: WinterDesignDay,                   !- Field 16
  Until: 24:00,                           !- Field 17
  21,                                     !- Field 18
  For: WeekEnds Holidays SummerDesignDay, !- Field 19
  Until: 24:00,                           !- Field 20
  16,                                     !- Field 21
  For: AllOtherDays,                      !- Field 22
  Until: 07:00,                           !- Field 23
  16,                                     !- Field 24
  Until: 18:00,                           !- Field 25
  21,                                     !- Field 26
  Until: 24:00,                           !- Field 27
  16,                                     !- Field 28
  Through: 12/31,                         !- Field 29
  For: WinterDesignDay,                   !- Field 30
  Until: 24:00,                           !- Field 31
  21,                                     !- Field 32
  For: WeekEnds Holidays SummerDesignDay, !- Field 33
  Until: 24:00,                           !- Field 34
  16,                                     !- Field 35
  For: AllOtherDays,                      !- Field 36
  Until: 06:00,                           !- Field 37
  16,                                     !- Field 38
  Until: 21:00,                           !- Field 39
  21,                                     !- Field 40
  Until: 24:00,                           !- Field 41
  16;                                     !- Field 42

OS:ScheduleTypeLimits,
  {ba7c14be-080a-49dd-8ec1-4f302a206b64}, !- Handle
  Temperature,                            !- Name
  -60,                                    !- Lower Limit Value {BasedOnField A4}
  200,                                    !- Upper Limit Value {BasedOnField A4}
  CONTINUOUS,                             !- Numeric Type
  Temperature;                            !- Unit Type

OS:Schedule:Compact,
  {edd3ef06-4629-4b30-8d7d-baa738634a94}, !- Handle
  CLGSETP_SCH,                            !- Name
  {ba7c14be-080a-49dd-8ec1-4f302a206b64}, !- Schedule Type Limits Name
  Through: 6/30,                          !- Field 1
  For: SummerDesignDay,                   !- Field 2
  Until: 24:00,                           !- Field 3
  24,                                     !- Field 4
  For: WeekEnds Holidays WinterDesignDay, !- Field 5
  Until: 24:00,                           !- Field 6
  27,                                     !- Field 7
  For: AllOtherDays,                      !- Field 8
  Until: 06:00,                           !- Field 9
  27,                                     !- Field 10
  Until: 21:00,                           !- Field 11
  24,                                     !- Field 12
  Until: 24:00,                           !- Field 13
  27,                                     !- Field 14
  Through: 9/1,                           !- Field 15
  For: SummerDesignDay,                   !- Field 16
  Until: 24:00,                           !- Field 17
  24,                                     !- Field 18
  For: WeekEnds Holidays WinterDesignDay, !- Field 19
  Until: 24:00,                           !- Field 20
  27,                                     !- Field 21
  For: AllOtherDays,                      !- Field 22
  Until: 07:00,                           !- Field 23
  27,                                     !- Field 24
  Until: 18:00,                           !- Field 25
  24,                                     !- Field 26
  Until: 24:00,                           !- Field 27
  27,                                     !- Field 28
  Through: 12/31,                         !- Field 29
  For: SummerDesignDay,                   !- Field 30
  Until: 24:00,                           !- Field 31
  24,                                     !- Field 32
  For: WeekEnds Holidays WinterDesignDay, !- Field 33
  Until: 24:00,                           !- Field 34
  27,                                     !- Field 35
  For: AllOtherDays,                      !- Field 36
  Until: 06:00,                           !- Field 37
  27,                                     !- Field 38
  Until: 21:00,                           !- Field 39
  24,                                     !- Field 40
  Until: 24:00,                           !- Field 41
  27;                                     !- Field 42

OS:Schedule:Compact,
  {e1dc5e58-df9b-4085-937d-bd8b6bce4776}, !- Handle
  BLDG_LIGHT_SCH,                         !- Name
  {de6c75fb-92a7-4ff8-8ed3-fc09ea10dea5}, !- Schedule Type Limits Name
  Through: 6/30,                          !- Field 1
  For: Weekdays SummerDesignDay,          !- Field 2
  Until: 07:00,                           !- Field 3
  0.1773,                                 !- Field 4
  Until: 21:00,                           !- Field 5
  0.9,                                    !- Field 6
  Until: 24:00,                           !- Field 7
  0.1773,                                 !- Field 8
  For: AllOtherDays,                      !- Field 9
  Until: 24:00,                           !- Field 10
  0.1773,                                 !- Field 11
  Through: 9/1,                           !- Field 12
  For: Weekdays SummerDesignDay,          !- Field 13
  Until: 08:00,                           !- Field 14
  0.1773,                                 !- Field 15
  Until: 20:00,                           !- Field 16
  0.5,                                    !- Field 17
  Until: 24:00,                           !- Field 18
  0.1773,                                 !- Field 19
  For: AllOtherDays,                      !- Field 20
  Until: 24:00,                           !- Field 21
  0.1773,                                 !- Field 22
  Through: 12/31,                         !- Field 23
  For: Weekdays SummerDesignDay,          !- Field 24
  Until: 07:00,                           !- Field 25
  0.1773,                                 !- Field 26
  Until: 21:00,                           !- Field 27
  0.9,                                    !- Field 28
  Until: 24:00,                           !- Field 29
  0.1773,                                 !- Field 30
  For: AllOtherDays,                      !- Field 31
  Until: 24:00,                           !- Field 32
  0.1773;                                 !- Field 33

OS:ScheduleTypeLimits,
  {de6c75fb-92a7-4ff8-8ed3-fc09ea10dea5}, !- Handle
  Fraction,                               !- Name
  0,                                      !- Lower Limit Value {BasedOnField A4}
  1,                                      !- Upper Limit Value {BasedOnField A4}
  CONTINUOUS;                             !- Numeric Type

OS:Surface,
  {6e5dcd11-6bca-4386-8cd2-5ee0ebdd95ea}, !- Handle
  Corner_Class_2_Pod_1_ZN_1_FLR_1_Wall_4, !- Name
  Wall,                                   !- Surface Type
  {b2fd27b3-453a-4e61-8e18-6b245ed3c4d1}, !- Construction Name
  {a55c704e-7b59-43a9-a0e9-ecc11565b069}, !- Space Name
  Outdoors,                               !- Outside Boundary Condition
  ,                                       !- Outside Boundary Condition Object
  SunExposed,                             !- Sun Exposure
  WindExposed,                            !- Wind Exposure
  ,                                       !- View Factor to Ground
  ,                                       !- Number of Vertices
  0, 9, 4,                                !- X,Y,Z Vertex 1 {m}
  0, 9, 0,                                !- X,Y,Z Vertex 2 {m}
  0, 0, 0,                                !- X,Y,Z Vertex 3 {m}
  0, 0, 4;                                !- X,Y,Z Vertex 4 {m}

OS:Construction,
  {b2fd27b3-453a-4e61-8e18-6b245ed3c4d1}, !- Handle
  Steel Frame Non-res Ext Wall,           !- Name
  ,                                       !- Surface Rendering Name
  {90a8f1e3-db0a-4e8e-81de-2759d7f101c0}, !- Layer 1
  {74471b27-bcd6-45a6-ae02-f243ea4481ae}, !- Layer 2
  {b8586a35-648e-4c48-8b90-f93ff3a2cd32}; !- Layer 3

OS:Material,
  {90a8f1e3-db0a-4e8e-81de-2759d7f101c0}, !- Handle
  Wood Siding,                            !- Name
  MediumSmooth,                           !- Roughness
  0.01,                                   !- Thickness {m}
  0.11,                                   !- Conductivity {W/m-K}
  544.62,                                 !- Density {kg/m3}
  1210,                                   !- Specific Heat {J/kg-K}
  0.9,                                    !- Thermal Absorptance
  0.78,                                   !- Solar Absorptance
  0.78;                                   !- Visible Absorptance

OS:Material,
  {74471b27-bcd6-45a6-ae02-f243ea4481ae}, !- Handle
  Steel Frame NonRes Wall Insulation,     !- Name
  MediumRough,                            !- Roughness
  0.0870564552646045,                     !- Thickness {m}
  0.049,                                  !- Conductivity {W/m-K}
  265,                                    !- Density {kg/m3}
  836.8,                                  !- Specific Heat {J/kg-K}
  0.9,                                    !- Thermal Absorptance
  0.7,                                    !- Solar Absorptance
  0.7;                                    !- Visible Absorptance

OS:Material,
  {b8586a35-648e-4c48-8b90-f93ff3a2cd32}, !- Handle
  1/2IN Gypsum,                           !- Name
  Smooth,                                 !- Roughness
  0.0127,                                 !- Thickness {m}
  0.16,                                   !- Conductivity {W/m-K}
  784.9,                                  !- Density {kg/m3}
  830,                                    !- Specific Heat {J/kg-K}
  0.9,                                    !- Thermal Absorptance
  0.92,                                   !- Solar Absorptance
  0.92;                                   !- Visible Absorptance

OS:ThermalZone,
  {232194ba-2c0e-48f8-9743-dbc60f28982b}, !- Handle
  Corner_Class_2_Pod_1_ZN_1_FLR_1 Thermal Zone, !- Name
  1,                                      !- Multiplier
  ,                                       !- Ceiling Height {m}
  ,                                       !- Volume {m3}
  ,                                       !- Floor Area {m2}
  ,                                       !- Zone Inside Convection Algorithm
  ,                                       !- Zone Outside Convection Algorithm
  ,                                       !- Zone Conditioning Equipment List Name
  {312c82dd-1f51-4ece-8cb2-6b99eef22ee3}, !- Zone Air Inlet Port List
  {60b2583f-dd77-4800-a5d2-c7fb4e41d66e}, !- Zone Air Exhaust Port List
  {1bc4586f-299c-40c2-96bb-6906b552457c}, !- Zone Air Node Name
  ,                                       !- Zone Return Air Node Name
  ,                                       !- Primary Daylighting Control Name
  ,                                       !- Fraction of Zone Controlled by Primary Daylighting Control
  ,                                       !- Secondary Daylighting Control Name
  ,                                       !- Fraction of Zone Controlled by Secondary Daylighting Control
  ,                                       !- Illuminance Map Name
  ,                                       !- Group Rendering Name
  {1027b989-593a-41c7-a778-bb2b456695d0}, !- Thermostat Name
  No;                                     !- Use Ideal Air Loads

OS:Node,
  {94dd073a-d072-472b-aa8b-eed56ea90346}, !- Handle
  {511a9508-36a4-4fde-8071-0d00d47373b9}, !- Name
  {1bc4586f-299c-40c2-96bb-6906b552457c}, !- Inlet Port
  ;                                       !- Outlet Port

OS:Connection,
  {1bc4586f-299c-40c2-96bb-6906b552457c}, !- Handle
  {d3c3e016-5a0f-4dab-9556-27b847a2483c}, !- Name
  {232194ba-2c0e-48f8-9743-dbc60f28982b}, !- Source Object
  11,                                     !- Outlet Port
  {94dd073a-d072-472b-aa8b-eed56ea90346}, !- Target Object
  2;                                      !- Inlet Port

OS:PortList,
  {312c82dd-1f51-4ece-8cb2-6b99eef22ee3}, !- Handle
  {7c9895ec-6de0-4dc6-b5fe-5f380a941414}, !- Name
  {232194ba-2c0e-48f8-9743-dbc60f28982b}; !- HVAC Component

OS:PortList,
  {60b2583f-dd77-4800-a5d2-c7fb4e41d66e}, !- Handle
  {e5ec7dd8-71d0-43ec-b72f-b54f166adbda}, !- Name
  {232194ba-2c0e-48f8-9743-dbc60f28982b}; !- HVAC Component

OS:Sizing:Zone,
  {cbbc237a-da00-4ae9-a85e-217112a13313}, !- Handle
  {232194ba-2c0e-48f8-9743-dbc60f28982b}, !- Zone or ZoneList Name
  14,                                     !- Zone Cooling Design Supply Air Temperature {C}
  40,                                     !- Zone Heating Design Supply Air Temperature {C}
  0.0085,                                 !- Zone Cooling Design Supply Air Humidity Ratio {kg-H2O/kg-air}
  0.008,                                  !- Zone Heating Design Supply Air Humidity Ratio {kg-H2O/kg-air}
  ,                                       !- Zone Heating Sizing Factor
  ,                                       !- Zone Cooling Sizing Factor
  DesignDay,                              !- Cooling Design Air Flow Method
  ,                                       !- Cooling Design Air Flow Rate {m3/s}
  ,                                       !- Cooling Minimum Air Flow per Zone Floor Area {m3/s-m2}
  ,                                       !- Cooling Minimum Air Flow {m3/s}
  ,                                       !- Cooling Minimum Air Flow Fraction
  DesignDay,                              !- Heating Design Air Flow Method
  ,                                       !- Heating Design Air Flow Rate {m3/s}
  ,                                       !- Heating Maximum Air Flow per Zone Floor Area {m3/s-m2}
  ,                                       !- Heating Maximum Air Flow {m3/s}
  ,                                       !- Heating Maximum Air Flow Fraction
  ,                                       !- Design Zone Air Distribution Effectiveness in Cooling Mode
  ;                                       !- Design Zone Air Distribution Effectiveness in Heating Mode

OS:ZoneHVAC:EquipmentList,
  {a8ae4626-6b16-45eb-9bf5-1ae1eb1cc70e}, !- Handle
  {56b399d2-63bb-4ff8-aa94-c4b39a450f42}, !- Name
  {232194ba-2c0e-48f8-9743-dbc60f28982b}; !- Thermal Zone

OS:Space,
  {a55c704e-7b59-43a9-a0e9-ecc11565b069}, !- Handle
  Corner_Class_2_Pod_1_ZN_1_FLR_1,        !- Name
  ,                                       !- Space Type Name
  ,                                       !- Default Construction Set Name
  ,                                       !- Default Schedule Set Name
  0,                                      !- Direction of Relative North {deg}
  -64,                                    !- X Origin {m}
  12,                                     !- Y Origin {m}
  0,                                      !- Z Origin {m}
  ,                                       !- Building Story Name
  {232194ba-2c0e-48f8-9743-dbc60f28982b}, !- Thermal Zone Name
  Yes;                                    !- Part of Total Floor Area

OS:ThermostatSetpoint:DualSetpoint,
  {1027b989-593a-41c7-a778-bb2b456695d0}, !- Handle
  {7857a4ed-6f99-48cf-b5c8-a6398842cef2}, !- Name
  {bf606983-facd-47f9-b51d-53c2759aeea6}, !- Heating Setpoint Temperature Schedule Name
  {edd3ef06-4629-4b30-8d7d-baa738634a94}; !- Cooling Setpoint Temperature Schedule Name

OS:Surface,
  {cc287fee-dec2-4fc8-adb8-2a02068f9502}, !- Handle
  Corner_Class_1_Pod_1_ZN_1_FLR_1_Ceiling, !- Name
  RoofCeiling,                            !- Surface Type
  {eae4b9eb-b27d-464d-8212-1edb5853e352}, !- Construction Name
  {ae974835-8950-4513-b692-69086df6dc04}, !- Space Name
  Outdoors,                               !- Outside Boundary Condition
  ,                                       !- Outside Boundary Condition Object
  SunExposed,                             !- Sun Exposure
  WindExposed,                            !- Wind Exposure
  ,                                       !- View Factor to Ground
  ,                                       !- Number of Vertices
  11, 0, 4,                               !- X,Y,Z Vertex 1 {m}
  11, 9, 4,                               !- X,Y,Z Vertex 2 {m}
  0, 9, 4,                                !- X,Y,Z Vertex 3 {m}
  0, 0, 4;                                !- X,Y,Z Vertex 4 {m}

OS:Construction,
  {eae4b9eb-b27d-464d-8212-1edb5853e352}, !- Handle
  IEAD Non-res Roof,                      !- Name
  ,                                       !- Surface Rendering Name
  {f8605e3d-0ac1-4425-bd91-7087b5b86168}, !- Layer 1
  {fc16cd45-ef0c-47c3-b94f-4193e813b1b2}, !- Layer 2
  {94e5473f-9168-4fac-969c-5ae5d08219ae}; !- Layer 3

OS:Material,
  {f8605e3d-0ac1-4425-bd91-7087b5b86168}, !- Handle
  Roof Membrane,                          !- Name
  VeryRough,                              !- Roughness
  0.0095,                                 !- Thickness {m}
  0.16,                                   !- Conductivity {W/m-K}
  1121.29,                                !- Density {kg/m3}
  1460,                                   !- Specific Heat {J/kg-K}
  0.9,                                    !- Thermal Absorptance
  0.7,                                    !- Solar Absorptance
  0.7;                                    !- Visible Absorptance

OS:Material,
  {fc16cd45-ef0c-47c3-b94f-4193e813b1b2}, !- Handle
  IEAD NonRes Roof Insulation,            !- Name
  MediumRough,                            !- Roughness
  0.127338688569477,                      !- Thickness {m}
  0.049,                                  !- Conductivity {W/m-K}
  265,                                    !- Density {kg/m3}
  836.8,                                  !- Specific Heat {J/kg-K}
  0.9,                                    !- Thermal Absorptance
  0.7,                                    !- Solar Absorptance
  0.7;                                    !- Visible Absorptance

OS:Material,
  {94e5473f-9168-4fac-969c-5ae5d08219ae}, !- Handle
  Metal Decking,                          !- Name
  MediumSmooth,                           !- Roughness
  0.0015,                                 !- Thickness {m}
  45.006,                                 !- Conductivity {W/m-K}
  7680,                                   !- Density {kg/m3}
  418.4,                                  !- Specific Heat {J/kg-K}
  0.9,                                    !- Thermal Absorptance
  0.7,                                    !- Solar Absorptance
  0.3;                                    !- Visible Absorptance

OS:ThermalZone,
  {9d873f2f-6e5d-440f-8e03-298759488384}, !- Handle
  Corner_Class_1_Pod_1_ZN_1_FLR_1 Thermal Zone, !- Name
  1,                                      !- Multiplier
  ,                                       !- Ceiling Height {m}
  ,                                       !- Volume {m3}
  ,                                       !- Floor Area {m2}
  ,                                       !- Zone Inside Convection Algorithm
  ,                                       !- Zone Outside Convection Algorithm
  ,                                       !- Zone Conditioning Equipment List Name
  {fa4ed7a7-efff-427b-a746-a71e8b85643f}, !- Zone Air Inlet Port List
  {3d6c031f-cb3d-4066-b6b0-0210c959df13}, !- Zone Air Exhaust Port List
  {9e01ec3e-bcb7-491d-b442-39fbd7234698}, !- Zone Air Node Name
  ,                                       !- Zone Return Air Node Name
  ,                                       !- Primary Daylighting Control Name
  ,                                       !- Fraction of Zone Controlled by Primary Daylighting Control
  ,                                       !- Secondary Daylighting Control Name
  ,                                       !- Fraction of Zone Controlled by Secondary Daylighting Control
  ,                                       !- Illuminance Map Name
  ,                                       !- Group Rendering Name
  {5950d187-eb94-4532-abe6-5433f0ac83cf}, !- Thermostat Name
  No;                                     !- Use Ideal Air Loads

OS:Node,
  {a2333079-840c-4ef3-949a-d22a0b7569d3}, !- Handle
  {41b0476e-1278-4abf-981e-65d578f51b93}, !- Name
  {9e01ec3e-bcb7-491d-b442-39fbd7234698}, !- Inlet Port
  ;                                       !- Outlet Port

OS:Connection,
  {9e01ec3e-bcb7-491d-b442-39fbd7234698}, !- Handle
  {12503f8e-ba4a-438c-8778-b85b39155d17}, !- Name
  {9d873f2f-6e5d-440f-8e03-298759488384}, !- Source Object
  11,                                     !- Outlet Port
  {a2333079-840c-4ef3-949a-d22a0b7569d3}, !- Target Object
  2;                                      !- Inlet Port

OS:PortList,
  {fa4ed7a7-efff-427b-a746-a71e8b85643f}, !- Handle
  {35fbad60-5cd3-49cc-8339-e4428fdfe750}, !- Name
  {9d873f2f-6e5d-440f-8e03-298759488384}; !- HVAC Component

OS:PortList,
  {3d6c031f-cb3d-4066-b6b0-0210c959df13}, !- Handle
  {e6e9fb56-3b9c-476c-9d78-fdf264451a4d}, !- Name
  {9d873f2f-6e5d-440f-8e03-298759488384}; !- HVAC Component

OS:Sizing:Zone,
  {d8864e2c-2789-45ed-b676-c807d7f7a8c5}, !- Handle
  {9d873f2f-6e5d-440f-8e03-298759488384}, !- Zone or ZoneList Name