
OS:Version,
  {e1661306-a2f7-4ac8-83c1-f5d4e6c5d82e}, !- Handle
  1.3.0;                                  !- Version Identifier

OS:Site,
  {7b2e1cbd-5cf6-4fce-b925-28b7d5b1909d}, !- Handle
  USA IL-CHICAGO-OHARE,                   !- Name
  41.77,                                  !- Latitude {deg}
  -87.75,                                 !- Longitude {deg}
  -6,                                     !- Time Zone {hr}
  190,                                    !- Elevation {m}
  City;                                   !- Terrain

OS:SimulationControl,
  {95d076ec-8990-484a-b00e-181579d4a639}, !- Handle
  Yes,                                    !- Do Zone Sizing Calculation
  Yes,                                    !- Do System Sizing Calculation
  Yes,                                    !- Do Plant Sizing Calculation
  No,                                     !- Run Simulation for Sizing Periods
  Yes,                                    !- Run Simulation for Weather File Run Periods
  0.04,                                   !- Loads Convergence Tolerance Value
  0.2,                                    !- Temperature Convergence Tolerance Value {deltaC}
  FullInteriorAndExterior,                !- Solar Distribution
  25,                                     !- Maximum Number of Warmup Days
  6;                                      !- Minimum Number of Warmup Days

OS:Meter,
  {a18ddbd3-a453-4fd8-88da-ef9b19a5f35c}, !- Handle
  Heating:Electricity,                    !- Name
  hourly,                                 !- Reporting Frequency
  False,                                  !- Meter File Only
  False;                                  !- Cumulative

OS:Schedule:Compact,
  {79aebdad-7130-4b95-bd3c-ac392707ed4b}, !- Handle
  Kitchen_Case:1_WALKINFREEZER_CaseDefrost2aDaySched, !- Name
  {eca05e90-11a2-40a8-9f13-7e519fcd3032}, !- Schedule Type Limits Name
  Through: 12/31,                         !- Field 1
  For:AllDays,                            !- Field 2
  Interpolate:Yes,                        !- Field 3
  Until: 11:00,                           !- Field 4
  0,                                      !- Field 5
  Until: 11:20,                           !- Field 6
  1,                                      !- Field 7
  Until: 23:00,                           !- Field 8
  0,                                      !- Field 9
  Until: 23:20,                           !- Field 10
  1,                                      !- Field 11
  Until: 24:00,                           !- Field 12
  0;                                      !- Field 13

OS:ScheduleTypeLimits,
  {eca05e90-11a2-40a8-9f13-7e519fcd3032}, !- Handle
  On/Off,                                 !- Name
  0,                                      !- Lower Limit Value {BasedOnField A4}
  1,                                      !- Upper Limit Value {BasedOnField A4}
  DISCRETE,                               !- Numeric Type
  Availability;                           !- Unit Type

OS:Surface,
  {1810c396-52a5-4c17-b9d2-94f0c813133c}, !- Handle
  Kitchen_Wall_North,                     !- Name
  Wall,                                   !- Surface Type
  {c5ea4808-a8f6-4697-9c7d-4efe49ec9af8}, !- Construction Name
  {ab7964c8-ce90-4863-8b0a-e293cb28a162}, !- Space Name
  Outdoors,                               !- Outside Boundary Condition
  ,                                       !- Outside Boundary Condition Object
  SunExposed,                             !- Sun Exposure
  WindExposed,                            !- Wind Exposure
  ,                                       !- View Factor to Ground
  ,                                       !- Number of Vertices
  15.2428, 15.2428, 3.0488,               !- X,Y,Z Vertex 1 {m}
  15.2428, 15.2428, 0,                    !- X,Y,Z Vertex 2 {m}
  0, 15.2428, 0,                          !- X,Y,Z Vertex 3 {m}
  0, 15.2428, 3.0488;                     !- X,Y,Z Vertex 4 {m}

OS:Construction,
  {c5ea4808-a8f6-4697-9c7d-4efe49ec9af8}, !- Handle
  Wood Frame Non-res Ext Wall,            !- Name
  ,                                       !- Surface Rendering Name
  {3eaf8b4e-00de-4a94-a40a-96d73000d91c}, !- Layer 1
  {c0a01ad6-81b3-41f6-b798-9bf31fd23e1e}, !- Layer 2
  {9d941166-5f06-4f4c-b4db-3e3a712d41ed}; !- Layer 3

OS:Material,
  {3eaf8b4e-00de-4a94-a40a-96d73000d91c}, !- Handle
  Wood Siding,                            !- Name
  MediumSmooth,                           !- Roughness
  0.01,                                   !- Thickness {m}
  0.11,                                   !- Conductivity {W/m-K}
  544.62,                                 !- Density {kg/m3}
  1210,                                   !- Specific Heat {J/kg-K}
  0.9,                                    !- Thermal Absorptance
  0.78,                                   !- Solar Absorptance
  0.78;                                   !- Visible Absorptance

OS:Material,
  {c0a01ad6-81b3-41f6-b798-9bf31fd23e1e}, !- Handle
  Wood Frame NonRes Wall Insulation,      !- Name
  MediumRough,                            !- Roughness
  0.0812847864409827,                     !- Thickness {m}
  0.049,                                  !- Conductivity {W/m-K}
  265,                                    !- Density {kg/m3}
  836.8,                                  !- Specific Heat {J/kg-K}
  0.9,                                    !- Thermal Absorptance
  0.7,                                    !- Solar Absorptance
  0.7;                                    !- Visible Absorptance

OS:Material,
  {9d941166-5f06-4f4c-b4db-3e3a712d41ed}, !- Handle
  1/2IN Gypsum,                           !- Name
  Smooth,                                 !- Roughness
  0.0127,                                 !- Thickness {m}
  0.16,                                   !- Conductivity {W/m-K}
  784.9,                                  !- Density {kg/m3}
  830,                                    !- Specific Heat {J/kg-K}
  0.9,                                    !- Thermal Absorptance
  0.92,                                   !- Solar Absorptance
  0.92;                                   !- Visible Absorptance

OS:ThermalZone,
  {5f88d14f-7b8c-4dda-8513-56611abc3f38}, !- Handle
  Kitchen Thermal Zone,                   !- Name
  1,                                      !- Multiplier
  ,                                       !- Ceiling Height {m}
  ,                                       !- Volume {m3}
  ,                                       !- Floor Area {m2}
  ,                                       !- Zone Inside Convection Algorithm
  ,                                       !- Zone Outside Convection Algorithm
  ,                                       !- Zone Conditioning Equipment List Name
  {acaafc83-1ba8-4738-868e-7cf4db947da8}, !- Zone Air Inlet Port List
  {ef858fc0-f2da-4699-9ac4-8df91b869d21}, !- Zone Air Exhaust Port List
  {c71ac0e9-618e-4e1a-b59e-476b20429fa0}, !- Zone Air Node Name
  ,                                       !- Zone Return Air Node Name
  ,                                       !- Primary Daylighting Control Name
  ,                                       !- Fraction of Zone Controlled by Primary Daylighting Control
  ,                                       !- Secondary Daylighting Control Name
  ,                                       !- Fraction of Zone Controlled by Secondary Daylighting Control
  ,                                       !- Illuminance Map Name
  ,                                       !- Group Rendering Name
  {8efe2106-f1b2-43d1-9c13-7713be8db3da}, !- Thermostat Name
  No;                                     !- Use Ideal Air Loads

OS:Node,
  {d593685a-ee20-4d70-841d-f755ddf94599}, !- Handle
  {f774857e-d2f2-4799-81a4-1bdc3a4db249}, !- Name
  {c71ac0e9-618e-4e1a-b59e-476b20429fa0}, !- Inlet Port
  ;                                       !- Outlet Port

OS:Connection,
  {c71ac0e9-618e-4e1a-b59e-476b20429fa0}, !- Handle
  {517217c6-9c66-4550-aade-961f07889014}, !- Name
  {5f88d14f-7b8c-4dda-8513-56611abc3f38}, !- Source Object
  11,                                     !- Outlet Port
  {d593685a-ee20-4d70-841d-f755ddf94599}, !- Target Object
  2;                                      !- Inlet Port

OS:PortList,
  {acaafc83-1ba8-4738-868e-7cf4db947da8}, !- Handle
  {5ec42129-1647-4c99-8a8c-4b41dc617f6e}, !- Name
  {5f88d14f-7b8c-4dda-8513-56611abc3f38}; !- HVAC Component

OS:PortList,
  {ef858fc0-f2da-4699-9ac4-8df91b869d21}, !- Handle
  {f8c2c3cf-5431-4a78-badc-b3e49a2f11f8}, !- Name
  {5f88d14f-7b8c-4dda-8513-56611abc3f38}; !- HVAC Component

OS:Sizing:Zone,
  {f0fe2086-ab95-43f7-b903-36bb13648dac}, !- Handle
  {5f88d14f-7b8c-4dda-8513-56611abc3f38}, !- Zone or ZoneList Name
  14,                                     !- Zone Cooling Design Supply Air Temperature {C}
  40,                                     !- Zone Heating Design Supply Air Temperature {C}
  0.0085,                                 !- Zone Cooling Design Supply Air Humidity Ratio {kg-H2O/kg-air}
  0.008,                                  !- Zone Heating Design Supply Air Humidity Ratio {kg-H2O/kg-air}
  ,                                       !- Zone Heating Sizing Factor
  ,                                       !- Zone Cooling Sizing Factor
  DesignDay,                              !- Cooling Design Air Flow Method
  ,                                       !- Cooling Design Air Flow Rate {m3/s}
  ,                                       !- Cooling Minimum Air Flow per Zone Floor Area {m3/s-m2}
  ,                                       !- Cooling Minimum Air Flow {m3/s}
  ,                                       !- Cooling Minimum Air Flow Fraction
  DesignDay,                              !- Heating Design Air Flow Method
  ,                                       !- Heating Design Air Flow Rate {m3/s}
  ,                                       !- Heating Maximum Air Flow per Zone Floor Area {m3/s-m2}
  ,                                       !- Heating Maximum Air Flow {m3/s}
  ,                                       !- Heating Maximum Air Flow Fraction
  ,                                       !- Design Zone Air Distribution Effectiveness in Cooling Mode
  ;                                       !- Design Zone Air Distribution Effectiveness in Heating Mode

OS:ZoneHVAC:EquipmentList,
  {1a57dac1-50df-4592-8a33-0402a798a229}, !- Handle
  {12828714-95ba-4413-b8b0-64ff6d9b776b}, !- Name
  {5f88d14f-7b8c-4dda-8513-56611abc3f38}; !- Thermal Zone

OS:Space,
  {ab7964c8-ce90-4863-8b0a-e293cb28a162}, !- Handle
  Kitchen,                                !- Name
  ,                                       !- Space Type Name
  ,                                       !- Default Construction Set Name
  ,                                       !- Default Schedule Set Name
  0,                                      !- Direction of Relative North {deg}
  0,                                      !- X Origin {m}
  0,                                      !- Y Origin {m}
  0,                                      !- Z Origin {m}
  ,                                       !- Building Story Name
  {5f88d14f-7b8c-4dda-8513-56611abc3f38}, !- Thermal Zone Name
  Yes;                                    !- Part of Total Floor Area

OS:ThermostatSetpoint:DualSetpoint,
  {8efe2106-f1b2-43d1-9c13-7713be8db3da}, !- Handle
  {bde964a4-2f61-412e-94fa-9a24f67f715b}, !- Name
  {bf6e6338-a2d2-40ce-9450-90930602452a}, !- Heating Setpoint Temperature Schedule Name
  {a8c77e10-8b0d-4ef6-a465-9e89c9abe873}; !- Cooling Setpoint Temperature Schedule Name

OS:Schedule:Compact,
  {bf6e6338-a2d2-40ce-9450-90930602452a}, !- Handle
  HTGSETP_KITCHEN_SCH,                    !- Name
  {084f6721-d1fe-4ad4-8207-0197ab799530}, !- Schedule Type Limits Name
  Through: 12/31,                         !- Field 1
  For: SummerDesignDay,                   !- Field 2
  Until: 24:00,                           !- Field 3
  15.6,                                   !- Field 4
  For: WinterDesignDay,                   !- Field 5
  Until: 24:00,                           !- Field 6
  19,                                     !- Field 7
  For: AllOtherDays,                      !- Field 8
  Until: 01:00,                           !- Field 9
  19,                                     !- Field 10
  Until: 05:00,                           !- Field 11
  15.6,                                   !- Field 12
  Until: 24:00,                           !- Field 13
  19;                                     !- Field 14

OS:ScheduleTypeLimits,
  {084f6721-d1fe-4ad4-8207-0197ab799530}, !- Handle
  Temperature,                            !- Name
  -60,                                    !- Lower Limit Value {BasedOnField A4}
  200,                                    !- Upper Limit Value {BasedOnField A4}
  CONTINUOUS,                             !- Numeric Type
  Temperature;                            !- Unit Type

OS:Schedule:Compact,
  {a8c77e10-8b0d-4ef6-a465-9e89c9abe873}, !- Handle
  CLGSETP_KITCHEN_SCH,                    !- Name
  {084f6721-d1fe-4ad4-8207-0197ab799530}, !- Schedule Type Limits Name
  Through: 12/31,                         !- Field 1
  For: WinterDesignDay,                   !- Field 2
  Until: 24:00,                           !- Field 3
  30,                                     !- Field 4
  For: AllOtherDays,                      !- Field 5
  Until: 01:00,                           !- Field 6
  26,                                     !- Field 7
  Until: 05:00,                           !- Field 8
  30,                                     !- Field 9
  Until: 24:00,                           !- Field 10
  26;                                     !- Field 11

OS:ScheduleTypeLimits,
  {4bde9c63-1a41-4143-9614-366067609c40}, !- Handle
  Control Type,                           !- Name
  0,                                      !- Lower Limit Value {BasedOnField A4}
  4,                                      !- Upper Limit Value {BasedOnField A4}
  DISCRETE,                               !- Numeric Type
  ControlMode;                            !- Unit Type

OS:Surface,
  {1ab97f51-9583-454b-ba6a-21c8c366ae37}, !- Handle
  Dining_Wall_West,                       !- Name
  Wall,                                   !- Surface Type
  {c5ea4808-a8f6-4697-9c7d-4efe49ec9af8}, !- Construction Name
  {c2294a06-801d-472d-bfe8-b0d133556a9b}, !- Space Name
  Outdoors,                               !- Outside Boundary Condition
  ,                                       !- Outside Boundary Condition Object
  SunExposed,                             !- Sun Exposure
  WindExposed,                            !- Wind Exposure
  ,                                       !- View Factor to Ground
  ,                                       !- Number of Vertices
  0, 7.6214, 3.0488,                      !- X,Y,Z Vertex 1 {m}
  0, 7.6214, 0,                           !- X,Y,Z Vertex 2 {m}
  0, 0, 0,                                !- X,Y,Z Vertex 3 {m}
  0, 0, 3.0488;                           !- X,Y,Z Vertex 4 {m}

OS:ThermalZone,
  {9d6170ba-36dc-41bb-973b-95676bbd055c}, !- Handle
  Dining Thermal Zone,                    !- Name
  1,                                      !- Multiplier
  ,                                       !- Ceiling Height {m}
  ,                                       !- Volume {m3}
  ,                                       !- Floor Area {m2}
  ,                                       !- Zone Inside Convection Algorithm
  ,                                       !- Zone Outside Convection Algorithm
  ,                                       !- Zone Conditioning Equipment List Name
  {2436b4f1-1b20-4d99-bba7-ab69a320bbb2}, !- Zone Air Inlet Port List
  {ae458477-9045-4c72-9ff0-961096fea3ed}, !- Zone Air Exhaust Port List
  {a513087c-02f4-4cc3-9b3a-e5c121661d6e}, !- Zone Air Node Name
  ,                                       !- Zone Return Air Node Name
  ,                                       !- Primary Daylighting Control Name
  ,                                       !- Fraction of Zone Controlled by Primary Daylighting Control
  ,                                       !- Secondary Daylighting Control Name
  ,                                       !- Fraction of Zone Controlled by Secondary Daylighting Control
  ,                                       !- Illuminance Map Name
  ,                                       !- Group Rendering Name
  {df87dee3-8740-4670-b3b4-4ee1d463d303}, !- Thermostat Name
  No;                                     !- Use Ideal Air Loads

OS:Node,
  {488c755b-f767-412e-a2af-45197565398b}, !- Handle
  {8beefa99-8db3-471b-8cbd-28af21a5c73a}, !- Name
  {a513087c-02f4-4cc3-9b3a-e5c121661d6e}, !- Inlet Port
  ;                                       !- Outlet Port

OS:Connection,
  {a513087c-02f4-4cc3-9b3a-e5c121661d6e}, !- Handle
  {3cae2dd0-1094-43c3-bc39-b6f373280e0b}, !- Name
  {9d6170ba-36dc-41bb-973b-95676bbd055c}, !- Source Object
  11,                                     !- Outlet Port
  {488c755b-f767-412e-a2af-45197565398b}, !- Target Object
  2;                                      !- Inlet Port

OS:PortList,
  {2436b4f1-1b20-4d99-bba7-ab69a320bbb2}, !- Handle
  {940cf626-683e-400c-a339-6d2c0045c948}, !- Name
  {9d6170ba-36dc-41bb-973b-95676bbd055c}; !- HVAC Component

OS:PortList,
  {ae458477-9045-4c72-9ff0-961096fea3ed}, !- Handle
  {d48fd56e-aac4-4832-96bc-f3d2b33f8e1b}, !- Name
  {9d6170ba-36dc-41bb-973b-95676bbd055c}; !- HVAC Component

OS:Sizing:Zone,
  {46868b9a-abbf-4af7-a80a-a9ab5308be45}, !- Handle
  {9d6170ba-36dc-41bb-973b-95676bbd055c}, !- Zone or ZoneList Name
  14,                                     !- Zone Cooling Design Supply Air Temperature {C}
  40,                                     !- Zone Heating Design Supply Air Temperature {C}
  0.0085,                                 !- Zone Cooling Design Supply Air Humidity Ratio {kg-H2O/kg-air}
  0.008,                                  !- Zone Heating Design Supply Air Humidity Ratio {kg-H2O/kg-air}
  ,                                       !- Zone Heating Sizing Factor
  ,                                       !- Zone Cooling Sizing Factor
  DesignDay,                              !- Cooling Design Air Flow Method
  ,                                       !- Cooling Design Air Flow Rate {m3/s}
  ,                                       !- Cooling Minimum Air Flow per Zone Floor Area {m3/s-m2}
  ,                                       !- Cooling Minimum Air Flow {m3/s}
  ,                                       !- Cooling Minimum Air Flow Fraction
  DesignDay,                              !- Heating Design Air Flow Method
  ,                                       !- Heating Design Air Flow Rate {m3/s}
  ,                                       !- Heating Maximum Air Flow per Zone Floor Area {m3/s-m2}
  ,                                       !- Heating Maximum Air Flow {m3/s}
  ,                                       !- Heating Maximum Air Flow Fraction
  ,                                       !- Design Zone Air Distribution Effectiveness in Cooling Mode
  ;                                       !- Design Zone Air Distribution Effectiveness in Heating Mode

OS:ZoneHVAC:EquipmentList,
  {6accfc16-d189-4cb4-b094-fc7af8841ec8}, !- Handle
  {eaae147b-2029-4b38-8c5a-6fea1e6ddf2b}, !- Name
  {9d6170ba-36dc-41bb-973b-95676bbd055c}; !- Thermal Zone

OS:Space,
  {c2294a06-801d-472d-bfe8-b0d133556a9b}, !- Handle
  Dining,                                 !- Name
  ,                                       !- Space Type Name
  ,                                       !- Default Construction Set Name
  ,                                       !- Default Schedule Set Name
  0,                                      !- Direction of Relative North {deg}
  0,                                      !- X Origin {m}
  0,                                      !- Y Origin {m}
  0,                                      !- Z Origin {m}
  ,                                       !- Building Story Name
  {9d6170ba-36dc-41bb-973b-95676bbd055c}, !- Thermal Zone Name
  Yes;                                    !- Part of Total Floor Area

OS:ThermostatSetpoint:DualSetpoint,
  {df87dee3-8740-4670-b3b4-4ee1d463d303}, !- Handle
  {23408453-d13c-4d3f-9951-4f1c8d63ce9d}, !- Name
  {eca42ecd-c8db-46d0-b8a4-8b64e7d3d2d1}, !- Heating Setpoint Temperature Schedule Name
  {09c21cc8-3468-4c55-86de-3b926efb95dc}; !- Cooling Setpoint Temperature Schedule Name

OS:Schedule:Compact,
  {eca42ecd-c8db-46d0-b8a4-8b64e7d3d2d1}, !- Handle
  HTGSETP_SCH,                            !- Name
  {084f6721-d1fe-4ad4-8207-0197ab799530}, !- Schedule Type Limits Name
  Through: 12/31,                         !- Field 1
  For: SummerDesignDay,                   !- Field 2
  Until: 24:00,                           !- Field 3
  15.6,                                   !- Field 4
  For: WinterDesignDay,                   !- Field 5
  Until: 24:00,                           !- Field 6
  21,                                     !- Field 7
  For: AllOtherDays,                      !- Field 8
  Until: 01:00,                           !- Field 9
  21,                                     !- Field 10
  Until: 05:00,                           !- Field 11
  15.6,                                   !- Field 12
  Until: 24:00,                           !- Field 13
  21;                                     !- Field 14

OS:Schedule:Compact,
  {09c21cc8-3468-4c55-86de-3b926efb95dc}, !- Handle
  CLGSETP_SCH,                            !- Name
  {084f6721-d1fe-4ad4-8207-0197ab799530}, !- Schedule Type Limits Name
  Through: 12/31,                         !- Field 1
  For: WinterDesignDay,                   !- Field 2
  Until: 24:00,                           !- Field 3
  30,                                     !- Field 4
  For: AllOtherDays,                      !- Field 5
  Until: 01:00,                           !- Field 6
  24,                                     !- Field 7
  Until: 05:00,                           !- Field 8
  30,                                     !- Field 9
  Until: 24:00,                           !- Field 10
  24;                                     !- Field 11

OS:Meter,
  {8534d892-62b6-4787-bfb3-1821d02b5d83}, !- Handle
  HeatRejection:Electricity,              !- Name
  hourly,                                 !- Reporting Frequency
  False,                                  !- Meter File Only
  False;                                  !- Cumulative

OS:Surface,
  {63b75880-5bce-4fd6-a6f4-829c0c6e774c}, !- Handle
  Dining_Wall_South,                      !- Name
  Wall,                                   !- Surface Type
  {c5ea4808-a8f6-4697-9c7d-4efe49ec9af8}, !- Construction Name
  {c2294a06-801d-472d-bfe8-b0d133556a9b}, !- Space Name
  Outdoors,                               !- Outside Boundary Condition
  ,                                       !- Outside Boundary Condition Object
  SunExposed,                             !- Sun Exposure
  WindExposed,                            !- Wind Exposure
  ,                                       !- View Factor to Ground
  ,                                       !- Number of Vertices
  0, 0, 3.0488,                           !- X,Y,Z Vertex 1 {m}
  0, 0, 0,                                !- X,Y,Z Vertex 2 {m}
  15.2428, 0, 0,                          !- X,Y,Z Vertex 3 {m}
  15.2428, 0, 3.0488;                     !- X,Y,Z Vertex 4 {m}

OS:Construction,
  {ff69aeae-ab17-4910-b305-d997b7ed68fb}, !- Handle
  Window Non-res Fixed,                   !- Name
  ,                                       !- Surface Rendering Name
  {a0c9c3b0-0680-49df-b0de-e8e491565b48}; !- Layer 1

OS:WindowMaterial:SimpleGlazingSystem,
  {a0c9c3b0-0680-49df-b0de-e8e491565b48}, !- Handle
  NonRes Fixed Assembly Window,           !- Name
  3.23646,                                !- U-Factor {W/m2-K}
  0.39;                                   !- Solar Heat Gain Coefficient

OS:SizingPeriod:DesignDay,
  {6568ec0a-4cd8-4c02-a9be-fb57454280d0}, !- Handle
  CHICAGO Ann Htg 99.6% Condns DB,        !- Name
  -20.6,                                  !- Maximum Dry-Bulb Temperature {C}
  0,                                      !- Daily Dry-Bulb Temperature Range {deltaC}
  -20.6,                                  !- Humidity Indicating Conditions at Maximum Dry-Bulb {BasedOnField A3}
  99063,                                  !- Barometric Pressure {Pa}
  4.9,                                    !- Wind Speed {m/s}
  270,                                    !- Wind Direction {deg}
  0,                                      !- Sky Clearness
  0,                                      !- Rain Indicator
  0,                                      !- Snow Indicator
  21,                                     !- Day of Month
  1,                                      !- Month
  WinterDesignDay,                        !- Day Type
  0,                                      !- Daylight Saving Time Indicator
  Wetbulb,                                !- Humidity Indicating Type
  ,                                       !- Humidity Indicating Day Schedule Name
  ,                                       !- Dry-Bulb Temperature Range Modifier Type
  ,                                       !- Dry-Bulb Temperature Range Modifier Schedule Name
  ASHRAEClearSky;                         !- Solar Model Indicator

OS:Surface,
  {8c1e07ae-c427-425b-be39-2bd0e0e2c62a}, !- Handle
  attic-floor-dining,                     !- Name
  Floor,                                  !- Surface Type
  {f71e147a-fcb3-4068-a6d4-861246b7c829}, !- Construction Name
  {a0016aa2-c35e-4eb5-b726-1f14fe10794e}, !- Space Name
  Surface,                                !- Outside Boundary Condition
  {627a7705-d5f3-457d-9036-2cda7232af5c}, !- Outside Boundary Condition Object
  NoSun,                                  !- Sun Exposure
  NoWind,                                 !- Wind Exposure
  ,                                       !- View Factor to Ground
  ,                                       !- Number of Vertices
  15.2428, 7.6214, 0,                     !- X,Y,Z Vertex 1 {m}
  15.2428, 0, 0,                          !- X,Y,Z Vertex 2 {m}
  0, 0, 0,                                !- X,Y,Z Vertex 3 {m}
  0, 7.6214, 0;                           !- X,Y,Z Vertex 4 {m}

OS:Construction,
  {f71e147a-fcb3-4068-a6d4-861246b7c829}, !- Handle
  Attic Non-res Floor,                    !- Name
  ,                                       !- Surface Rendering Name
  {9d941166-5f06-4f4c-b4db-3e3a712d41ed}, !- Layer 1
  {2e31f5a7-f8b1-48c9-85a0-3f327b2eccb6}, !- Layer 2
  {9d941166-5f06-4f4c-b4db-3e3a712d41ed}; !- Layer 3

OS:Material,
  {2e31f5a7-f8b1-48c9-85a0-3f327b2eccb6}, !- Handle
  AtticFloor NonRes Insulation,           !- Name
  MediumRough,                            !- Roughness
  0.236804989096202,                      !- Thickness {m}
  0.049,                                  !- Conductivity {W/m-K}
  265,                                    !- Density {kg/m3}
  836.8,                                  !- Specific Heat {J/kg-K}
  0.9,                                    !- Thermal Absorptance
  0.7,                                    !- Solar Absorptance
  0.7;                                    !- Visible Absorptance

OS:ThermalZone,
  {6205cd97-30c8-4df7-b2d0-d34fcc55069e}, !- Handle
  attic Thermal Zone,                     !- Name
  1,                                      !- Multiplier
  ,                                       !- Ceiling Height {m}
  ,                                       !- Volume {m3}
  ,                                       !- Floor Area {m2}
  ,                                       !- Zone Inside Convection Algorithm
  ,                                       !- Zone Outside Convection Algorithm
  ,                                       !- Zone Conditioning Equipment List Name
  {01f4684e-9ed0-49d4-95fe-270953553027}, !- Zone Air Inlet Port List
  {178d822d-351b-4bd2-82c0-17d6c858f1db}, !- Zone Air Exhaust Port List
  {a690bffc-35b6-45ef-a1b2-4880ba72ddad}, !- Zone Air Node Name
  ,                                       !- Zone Return Air Node Name
  ,                                       !- Primary Daylighting Control Name
  ,                                       !- Fraction of Zone Controlled by Primary Daylighting Control
  ,                                       !- Secondary Daylighting Control Name
  ,                                       !- Fraction of Zone Controlled by Secondary Daylighting Control
  ,                                       !- Illuminance Map Name
  ,                                       !- Group Rendering Name
  ,                                       !- Thermostat Name
  No;                                     !- Use Ideal Air Loads

OS:Node,
  {b836fb6b-02fe-422f-bf41-3267967515bb}, !- Handle
  {61019b1b-eb1f-4e79-bcd8-33c9653c7f36}, !- Name
  {a690bffc-35b6-45ef-a1b2-4880ba72ddad}, !- Inlet Port
  ;                                       !- Outlet Port

OS:Connection,
  {a690bffc-35b6-45ef-a1b2-4880ba72ddad}, !- Handle
  {7968e895-ea6c-4a2f-8d88-a39fc686cea5}, !- Name
  {6205cd97-30c8-4df7-b2d0-d34fcc55069e}, !- Source Object
  11,                                     !- Outlet Port
  {b836fb6b-02fe-422f-bf41-3267967515bb}, !- Target Object
  2;                                      !- Inlet Port

OS:PortList,
  {01f4684e-9ed0-49d4-95fe-270953553027}, !- Handle
  {4ea91dac-9c9c-4611-bf97-71b08d493ca7}, !- Name
  {6205cd97-30c8-4df7-b2d0-d34fcc55069e}; !- HVAC Component

OS:PortList,
  {178d822d-351b-4bd2-82c0-17d6c858f1db}, !- Handle
  {a36c04f6-cd5e-4883-9079-fb7e23c3f9fc}, !- Name
  {6205cd97-30c8-4df7-b2d0-d34fcc55069e}; !- HVAC Component

OS:Sizing:Zone,
  {b3483fb2-acd2-4a38-af2b-dabc6807e55e}, !- Handle
  {6205cd97-30c8-4df7-b2d0-d34fcc55069e}, !- Zone or ZoneList Name
  14,                                     !- Zone Cooling Design Supply Air Temperature {C}
  40,                                     !- Zone Heating Design Supply Air Temperature {C}