
OS:Version,
  {754c1c18-490f-485c-913e-5d5b3abe889d}, !- Handle
  1.3.0;                                  !- Version Identifier

OS:Site,
  {b1be3e7b-f461-43fd-a11c-764c256d047a}, !- Handle
  USA IL-CHICAGO-OHARE,                   !- Name
  41.77,                                  !- Latitude {deg}
  -87.75,                                 !- Longitude {deg}
  -6,                                     !- Time Zone {hr}
  190,                                    !- Elevation {m}
  City;                                   !- Terrain

OS:SimulationControl,
  {7be49dc1-bfb6-40ce-a422-a29a4a43c841}, !- Handle
  Yes,                                    !- Do Zone Sizing Calculation
  Yes,                                    !- Do System Sizing Calculation
  Yes,                                    !- Do Plant Sizing Calculation
  No,                                     !- Run Simulation for Sizing Periods
  Yes,                                    !- Run Simulation for Weather File Run Periods
  0.04,                                   !- Loads Convergence Tolerance Value
  0.2,                                    !- Temperature Convergence Tolerance Value {deltaC}
  FullInteriorAndExterior,                !- Solar Distribution
  25,                                     !- Maximum Number of Warmup Days
  6;                                      !- Minimum Number of Warmup Days

OS:SubSurface,
  {99c13977-52a5-419b-83d5-5d9b481f1cc7}, !- Handle
  Mult_Class_2_Pod_3_ZN_1_FLR_1_Wall_3_window_1, !- Name
  FixedWindow,                            !- Sub Surface Type
  {ead0069f-1e68-4572-8bee-1aeda4f9a568}, !- Construction Name
  {8803e171-545f-4e3c-8290-484c0a352677}, !- Surface Name
  ,                                       !- Outside Boundary Condition Object
  ,                                       !- View Factor to Ground
  ,                                       !- Shading Control Name
  ,                                       !- Frame and Divider Name
  1,                                      !- Multiplier
  ,                                       !- Number of Vertices
  52.95, 9, 2.5026,                       !- X,Y,Z Vertex 1 {m}
  52.95, 9, 1.1,                          !- X,Y,Z Vertex 2 {m}
  0.05, 9, 1.1,                           !- X,Y,Z Vertex 3 {m}
  0.05, 9, 2.5026;                        !- X,Y,Z Vertex 4 {m}

OS:Construction,
  {ead0069f-1e68-4572-8bee-1aeda4f9a568}, !- Handle
  Window Non-res Fixed,                   !- Name
  ,                                       !- Surface Rendering Name
  {6369b2e5-35e2-406e-be5b-89220e8a1f07}; !- Layer 1

OS:WindowMaterial:SimpleGlazingSystem,
  {6369b2e5-35e2-406e-be5b-89220e8a1f07}, !- Handle
  NonRes Fixed Assembly Window,           !- Name
  3.23646,                                !- U-Factor {W/m2-K}
  0.39;                                   !- Solar Heat Gain Coefficient

OS:Surface,
  {8803e171-545f-4e3c-8290-484c0a352677}, !- Handle
  Mult_Class_2_Pod_3_ZN_1_FLR_1_Wall_3,   !- Name
  Wall,                                   !- Surface Type
  {b31e6d44-d7bf-441b-8aae-2339c644fad2}, !- Construction Name
  {d97d81b3-bfa8-4636-a15a-02de8a1002c3}, !- Space Name
  Outdoors,                               !- Outside Boundary Condition
  ,                                       !- Outside Boundary Condition Object
  SunExposed,                             !- Sun Exposure
  WindExposed,                            !- Wind Exposure
  ,                                       !- View Factor to Ground
  ,                                       !- Number of Vertices
  53, 9, 4,                               !- X,Y,Z Vertex 1 {m}
  53, 9, 0,                               !- X,Y,Z Vertex 2 {m}
  0, 9, 0,                                !- X,Y,Z Vertex 3 {m}
  0, 9, 4;                                !- X,Y,Z Vertex 4 {m}

OS:Construction,
  {b31e6d44-d7bf-441b-8aae-2339c644fad2}, !- Handle
  Steel Frame Non-res Ext Wall,           !- Name
  ,                                       !- Surface Rendering Name
  {7001c216-9ecb-46ea-9a82-eb5f233e893e}, !- Layer 1
  {daa32cc0-675b-45d1-b13e-d06e8c401f56}, !- Layer 2
  {4aec67f1-4a10-4bb9-a7ee-6fc63b52159c}; !- Layer 3

OS:Material,
  {7001c216-9ecb-46ea-9a82-eb5f233e893e}, !- Handle
  Wood Siding,                            !- Name
  MediumSmooth,                           !- Roughness
  0.01,                                   !- Thickness {m}
  0.11,                                   !- Conductivity {W/m-K}
  544.62,                                 !- Density {kg/m3}
  1210,                                   !- Specific Heat {J/kg-K}
  0.9,                                    !- Thermal Absorptance
  0.78,                                   !- Solar Absorptance
  0.78;                                   !- Visible Absorptance

OS:Material,
  {daa32cc0-675b-45d1-b13e-d06e8c401f56}, !- Handle
  Steel Frame NonRes Wall Insulation,     !- Name
  MediumRough,                            !- Roughness
  0.0870564552646045,                     !- Thickness {m}
  0.049,                                  !- Conductivity {W/m-K}
  265,                                    !- Density {kg/m3}
  836.8,                                  !- Specific Heat {J/kg-K}
  0.9,                                    !- Thermal Absorptance
  0.7,                                    !- Solar Absorptance
  0.7;                                    !- Visible Absorptance

OS:Material,
  {4aec67f1-4a10-4bb9-a7ee-6fc63b52159c}, !- Handle
  1/2IN Gypsum,                           !- Name
  Smooth,                                 !- Roughness
  0.0127,                                 !- Thickness {m}
  0.16,                                   !- Conductivity {W/m-K}
  784.9,                                  !- Density {kg/m3}
  830,                                    !- Specific Heat {J/kg-K}
  0.9,                                    !- Thermal Absorptance
  0.92,                                   !- Solar Absorptance
  0.92;                                   !- Visible Absorptance

OS:ThermalZone,
  {19d5040b-31db-47c8-b867-eef382f3ff85}, !- Handle
  Mult_Class_2_Pod_3_ZN_1_FLR_1 Thermal Zone, !- Name
  1,                                      !- Multiplier
  ,                                       !- Ceiling Height {m}
  ,                                       !- Volume {m3}
  ,                                       !- Floor Area {m2}
  ,                                       !- Zone Inside Convection Algorithm
  ,                                       !- Zone Outside Convection Algorithm
  ,                                       !- Zone Conditioning Equipment List Name
  {3d1ff3e2-ec97-44f3-9794-7a73576c86a2}, !- Zone Air Inlet Port List
  {228c094f-f113-42d0-a888-c88d7dcca566}, !- Zone Air Exhaust Port List
  {414ae888-83ec-46ff-9e7e-6111991b494a}, !- Zone Air Node Name
  ,                                       !- Zone Return Air Node Name
  ,                                       !- Primary Daylighting Control Name
  ,                                       !- Fraction of Zone Controlled by Primary Daylighting Control
  ,                                       !- Secondary Daylighting Control Name
  ,                                       !- Fraction of Zone Controlled by Secondary Daylighting Control
  ,                                       !- Illuminance Map Name
  ,                                       !- Group Rendering Name
  {525d86d5-0929-4a9e-945f-13d274d7e000}, !- Thermostat Name
  No;                                     !- Use Ideal Air Loads

OS:Node,
  {72c2f7b1-e79b-439a-b025-ddc25899b81e}, !- Handle
  {fd3d8068-6a64-445f-bb17-cec283b1e358}, !- Name
  {414ae888-83ec-46ff-9e7e-6111991b494a}, !- Inlet Port
  ;                                       !- Outlet Port

OS:Connection,
  {414ae888-83ec-46ff-9e7e-6111991b494a}, !- Handle
  {7eefa319-2223-43e5-a70b-731271ce9e70}, !- Name
  {19d5040b-31db-47c8-b867-eef382f3ff85}, !- Source Object
  11,                                     !- Outlet Port
  {72c2f7b1-e79b-439a-b025-ddc25899b81e}, !- Target Object
  2;                                      !- Inlet Port

OS:PortList,
  {3d1ff3e2-ec97-44f3-9794-7a73576c86a2}, !- Handle
  {c9eff883-95dc-4d41-a012-d9d80c1658b6}, !- Name
  {19d5040b-31db-47c8-b867-eef382f3ff85}; !- HVAC Component

OS:PortList,
  {228c094f-f113-42d0-a888-c88d7dcca566}, !- Handle
  {096b2946-a607-4b15-80be-315495f10f3e}, !- Name
  {19d5040b-31db-47c8-b867-eef382f3ff85}; !- HVAC Component

OS:Sizing:Zone,
  {2d0869ec-ba8f-4ea1-bfb6-7ce0e94f06e2}, !- Handle
  {19d5040b-31db-47c8-b867-eef382f3ff85}, !- Zone or ZoneList Name
  14,                                     !- Zone Cooling Design Supply Air Temperature {C}
  40,                                     !- Zone Heating Design Supply Air Temperature {C}
  0.0085,                                 !- Zone Cooling Design Supply Air Humidity Ratio {kg-H2O/kg-air}
  0.008,                                  !- Zone Heating Design Supply Air Humidity Ratio {kg-H2O/kg-air}
  ,                                       !- Zone Heating Sizing Factor
  ,                                       !- Zone Cooling Sizing Factor
  DesignDay,                              !- Cooling Design Air Flow Method
  ,                                       !- Cooling Design Air Flow Rate {m3/s}
  ,                                       !- Cooling Minimum Air Flow per Zone Floor Area {m3/s-m2}
  ,                                       !- Cooling Minimum Air Flow {m3/s}
  ,                                       !- Cooling Minimum Air Flow Fraction
  DesignDay,                              !- Heating Design Air Flow Method
  ,                                       !- Heating Design Air Flow Rate {m3/s}
  ,                                       !- Heating Maximum Air Flow per Zone Floor Area {m3/s-m2}
  ,                                       !- Heating Maximum Air Flow {m3/s}
  ,                                       !- Heating Maximum Air Flow Fraction
  ,                                       !- Design Zone Air Distribution Effectiveness in Cooling Mode
  ;                                       !- Design Zone Air Distribution Effectiveness in Heating Mode

OS:ZoneHVAC:EquipmentList,
  {c22a3694-cb3d-4b03-9cf8-b7dcd3257042}, !- Handle
  {fc5b30b1-cede-47a1-a3de-f6447517d4fa}, !- Name
  {19d5040b-31db-47c8-b867-eef382f3ff85}; !- Thermal Zone

OS:Space,
  {d97d81b3-bfa8-4636-a15a-02de8a1002c3}, !- Handle
  Mult_Class_2_Pod_3_ZN_1_FLR_1,          !- Name
  ,                                       !- Space Type Name
  ,                                       !- Default Construction Set Name
  ,                                       !- Default Schedule Set Name
  0,                                      !- Direction of Relative North {deg}
  11,                                     !- X Origin {m}
  95,                                     !- Y Origin {m}
  0,                                      !- Z Origin {m}
  ,                                       !- Building Story Name
  {19d5040b-31db-47c8-b867-eef382f3ff85}, !- Thermal Zone Name
  Yes;                                    !- Part of Total Floor Area

OS:ThermostatSetpoint:DualSetpoint,
  {525d86d5-0929-4a9e-945f-13d274d7e000}, !- Handle
  {b2ad286b-f810-4e8f-949a-f204ab9719c1}, !- Name
  {e2718ff3-3760-421b-b305-0dfd0418d6d8}, !- Heating Setpoint Temperature Schedule Name
  {b715a529-fe2c-4dc5-9bff-45fc8465610d}; !- Cooling Setpoint Temperature Schedule Name

OS:Schedule:Compact,
  {e2718ff3-3760-421b-b305-0dfd0418d6d8}, !- Handle
  HTGSETP_SCH,                            !- Name
  {2fedfe15-f030-4365-9a51-2f5e0cb342e9}, !- Schedule Type Limits Name
  Through: 6/30,                          !- Field 1
  For: WinterDesignDay,                   !- Field 2
  Until: 24:00,                           !- Field 3
  21,                                     !- Field 4
  For: WeekEnds Holidays SummerDesignDay, !- Field 5
  Until: 24:00,                           !- Field 6
  16,                                     !- Field 7
  For: AllOtherDays,                      !- Field 8
  Until: 06:00,                           !- Field 9
  16,                                     !- Field 10
  Until: 21:00,                           !- Field 11
  21,                                     !- Field 12
  Until: 24:00,                           !- Field 13
  16,                                     !- Field 14
  Through: 9/1,                           !- Field 15
  For: WinterDesignDay,                   !- Field 16
  Until: 24:00,                           !- Field 17
  21,                                     !- Field 18
  For: WeekEnds Holidays SummerDesignDay, !- Field 19
  Until: 24:00,                           !- Field 20
  16,                                     !- Field 21
  For: AllOtherDays,                      !- Field 22
  Until: 07:00,                           !- Field 23
  16,                                     !- Field 24
  Until: 18:00,                           !- Field 25
  21,                                     !- Field 26
  Until: 24:00,                           !- Field 27
  16,                                     !- Field 28
  Through: 12/31,                         !- Field 29
  For: WinterDesignDay,                   !- Field 30
  Until: 24:00,                           !- Field 31
  21,                                     !- Field 32
  For: WeekEnds Holidays SummerDesignDay, !- Field 33
  Until: 24:00,                           !- Field 34
  16,                                     !- Field 35
  For: AllOtherDays,                      !- Field 36
  Until: 06:00,                           !- Field 37
  16,                                     !- Field 38
  Until: 21:00,                           !- Field 39
  21,                                     !- Field 40
  Until: 24:00,                           !- Field 41
  16;                                     !- Field 42

OS:ScheduleTypeLimits,
  {2fedfe15-f030-4365-9a51-2f5e0cb342e9}, !- Handle
  Temperature,                            !- Name
  -60,                                    !- Lower Limit Value {BasedOnField A4}
  200,                                    !- Upper Limit Value {BasedOnField A4}
  CONTINUOUS,                             !- Numeric Type
  Temperature;                            !- Unit Type

OS:Schedule:Compact,
  {b715a529-fe2c-4dc5-9bff-45fc8465610d}, !- Handle
  CLGSETP_SCH,                            !- Name
  {2fedfe15-f030-4365-9a51-2f5e0cb342e9}, !- Schedule Type Limits Name
  Through: 6/30,                          !- Field 1
  For: SummerDesignDay,                   !- Field 2
  Until: 24:00,                           !- Field 3
  24,                                     !- Field 4
  For: WeekEnds Holidays WinterDesignDay, !- Field 5
  Until: 24:00,                           !- Field 6
  27,                                     !- Field 7
  For: AllOtherDays,                      !- Field 8
  Until: 06:00,                           !- Field 9
  27,                                     !- Field 10
  Until: 21:00,                           !- Field 11
  24,                                     !- Field 12
  Until: 24:00,                           !- Field 13
  27,                                     !- Field 14
  Through: 9/1,                           !- Field 15
  For: SummerDesignDay,                   !- Field 16
  Until: 24:00,                           !- Field 17
  24,                                     !- Field 18
  For: WeekEnds Holidays WinterDesignDay, !- Field 19
  Until: 24:00,                           !- Field 20
  27,                                     !- Field 21
  For: AllOtherDays,                      !- Field 22
  Until: 07:00,                           !- Field 23
  27,                                     !- Field 24
  Until: 18:00,                           !- Field 25
  24,                                     !- Field 26
  Until: 24:00,                           !- Field 27
  27,                                     !- Field 28
  Through: 12/31,                         !- Field 29
  For: SummerDesignDay,                   !- Field 30
  Until: 24:00,                           !- Field 31
  24,                                     !- Field 32
  For: WeekEnds Holidays WinterDesignDay, !- Field 33
  Until: 24:00,                           !- Field 34
  27,                                     !- Field 35
  For: AllOtherDays,                      !- Field 36
  Until: 06:00,                           !- Field 37
  27,                                     !- Field 38
  Until: 21:00,                           !- Field 39
  24,                                     !- Field 40
  Until: 24:00,                           !- Field 41
  27;                                     !- Field 42

OS:ThermalZone,
  {6d1aacf2-a1c7-4bda-b7e1-d6f6973a456d}, !- Handle
  Corner_Class_2_Pod_3_ZN_1_FLR_1 Thermal Zone, !- Name
  1,                                      !- Multiplier
  ,                                       !- Ceiling Height {m}
  ,                                       !- Volume {m3}
  ,                                       !- Floor Area {m2}
  ,                                       !- Zone Inside Convection Algorithm
  ,                                       !- Zone Outside Convection Algorithm
  ,                                       !- Zone Conditioning Equipment List Name
  {0b542142-17c8-45ae-9780-c6ae8b14b6a7}, !- Zone Air Inlet Port List
  {165237ac-00cd-4b32-a5fa-98cca98d5e22}, !- Zone Air Exhaust Port List
  {d8a1c61b-a1d8-4b57-92a8-d8ba878a64c4}, !- Zone Air Node Name
  ,                                       !- Zone Return Air Node Name
  ,                                       !- Primary Daylighting Control Name
  ,                                       !- Fraction of Zone Controlled by Primary Daylighting Control
  ,                                       !- Secondary Daylighting Control Name
  ,                                       !- Fraction of Zone Controlled by Secondary Daylighting Control
  ,                                       !- Illuminance Map Name
  ,                                       !- Group Rendering Name
  {6e33e6a1-e4fc-4533-abb1-b6fe23bc2016}, !- Thermostat Name
  No;                                     !- Use Ideal Air Loads

OS:Node,
  {37c22884-0e36-49a2-9cd5-53fe89b88d4e}, !- Handle
  {db8357e2-edf3-469f-ba96-3474bec610a4}, !- Name
  {d8a1c61b-a1d8-4b57-92a8-d8ba878a64c4}, !- Inlet Port
  ;                                       !- Outlet Port

OS:Connection,
  {d8a1c61b-a1d8-4b57-92a8-d8ba878a64c4}, !- Handle
  {9ed92e44-6c12-4e79-ae51-6c814b09db95}, !- Name
  {6d1aacf2-a1c7-4bda-b7e1-d6f6973a456d}, !- Source Object
  11,                                     !- Outlet Port
  {37c22884-0e36-49a2-9cd5-53fe89b88d4e}, !- Target Object
  2;                                      !- Inlet Port

OS:PortList,
  {0b542142-17c8-45ae-9780-c6ae8b14b6a7}, !- Handle
  {102abc5e-8eab-4031-bac2-63a6be5961d3}, !- Name
  {6d1aacf2-a1c7-4bda-b7e1-d6f6973a456d}; !- HVAC Component

OS:PortList,
  {165237ac-00cd-4b32-a5fa-98cca98d5e22}, !- Handle
  {74168682-8055-4f40-b66b-51b96917dd47}, !- Name
  {6d1aacf2-a1c7-4bda-b7e1-d6f6973a456d}; !- HVAC Component

OS:Sizing:Zone,
  {60754686-067f-4e60-8c4a-a38a115aee72}, !- Handle
  {6d1aacf2-a1c7-4bda-b7e1-d6f6973a456d}, !- Zone or ZoneList Name
  14,                                     !- Zone Cooling Design Supply Air Temperature {C}
  40,                                     !- Zone Heating Design Supply Air Temperature {C}
  0.0085,                                 !- Zone Cooling Design Supply Air Humidity Ratio {kg-H2O/kg-air}
  0.008,                                  !- Zone Heating Design Supply Air Humidity Ratio {kg-H2O/kg-air}
  ,                                       !- Zone Heating Sizing Factor
  ,                                       !- Zone Cooling Sizing Factor
  DesignDay,                              !- Cooling Design Air Flow Method
  ,                                       !- Cooling Design Air Flow Rate {m3/s}
  ,                                       !- Cooling Minimum Air Flow per Zone Floor Area {m3/s-m2}
  ,                                       !- Cooling Minimum Air Flow {m3/s}
  ,                                       !- Cooling Minimum Air Flow Fraction
  DesignDay,                              !- Heating Design Air Flow Method
  ,                                       !- Heating Design Air Flow Rate {m3/s}
  ,                                       !- Heating Maximum Air Flow per Zone Floor Area {m3/s-m2}
  ,                                       !- Heating Maximum Air Flow {m3/s}
  ,                                       !- Heating Maximum Air Flow Fraction
  ,                                       !- Design Zone Air Distribution Effectiveness in Cooling Mode
  ;                                       !- Design Zone Air Distribution Effectiveness in Heating Mode

OS:ZoneHVAC:EquipmentList,
  {c7169a87-c22f-498d-ae45-dab5a9002f22}, !- Handle
  {282019e4-6f9a-4c82-9d3c-5cfbc2e74b96}, !- Name
  {6d1aacf2-a1c7-4bda-b7e1-d6f6973a456d}; !- Thermal Zone

OS:Space,
  {a1e7f62a-e51e-452d-85d4-04b2d00136c6}, !- Handle
  Corner_Class_2_Pod_3_ZN_1_FLR_1,        !- Name
  ,                                       !- Space Type Name
  ,                                       !- Default Construction Set Name
  ,                                       !- Default Schedule Set Name
  0,                                      !- Direction of Relative North {deg}
  0,                                      !- X Origin {m}
  95,                                     !- Y Origin {m}
  0,                                      !- Z Origin {m}
  ,                                       !- Building Story Name
  {6d1aacf2-a1c7-4bda-b7e1-d6f6973a456d}, !- Thermal Zone Name
  Yes;                                    !- Part of Total Floor Area

OS:ThermostatSetpoint:DualSetpoint,
  {6e33e6a1-e4fc-4533-abb1-b6fe23bc2016}, !- Handle
  {f1d62977-10c4-45c8-8371-703e5589c976}, !- Name
  {e2718ff3-3760-421b-b305-0dfd0418d6d8}, !- Heating Setpoint Temperature Schedule Name
  {b715a529-fe2c-4dc5-9bff-45fc8465610d}; !- Cooling Setpoint Temperature Schedule Name

OS:Surface,
  {e870ee1b-1f1b-48b9-a10d-bc1dccd42738}, !- Handle
  Cafeteria_ZN_1_FLR_1_Wall_4,            !- Name
  Wall,                                   !- Surface Type
  {9c54bc88-9a15-4613-bf01-936631bc2509}, !- Construction Name
  {3e93d88e-7d29-4290-834d-9cc490387807}, !- Space Name
  Surface,                                !- Outside Boundary Condition
  {fa26806c-2849-47ff-9a1c-74a81328cb96}, !- Outside Boundary Condition Object
  NoSun,                                  !- Sun Exposure
  NoWind,                                 !- Wind Exposure
  ,                                       !- View Factor to Ground
  ,                                       !- Number of Vertices
  0, 26, 4,                               !- X,Y,Z Vertex 1 {m}
  0, 26, 0,                               !- X,Y,Z Vertex 2 {m}
  0, 0, 0,                                !- X,Y,Z Vertex 3 {m}
  0, 0, 4;                                !- X,Y,Z Vertex 4 {m}

OS:Construction,
  {9c54bc88-9a15-4613-bf01-936631bc2509}, !- Handle
  int-walls,                              !- Name
  ,                                       !- Surface Rendering Name
  {4aec67f1-4a10-4bb9-a7ee-6fc63b52159c}, !- Layer 1
  {4aec67f1-4a10-4bb9-a7ee-6fc63b52159c}; !- Layer 2

OS:ThermalZone,
  {a0995e58-0b4e-4a86-982d-42f91aa787c1}, !- Handle
  Cafeteria_ZN_1_FLR_1 Thermal Zone,      !- Name
  1,                                      !- Multiplier
  ,                                       !- Ceiling Height {m}
  ,                                       !- Volume {m3}
  ,                                       !- Floor Area {m2}
  ,                                       !- Zone Inside Convection Algorithm
  ,                                       !- Zone Outside Convection Algorithm
  ,                                       !- Zone Conditioning Equipment List Name
  {9a263f32-f5fd-4ff2-9f98-b4b5d9e998db}, !- Zone Air Inlet Port List
  {8ed789ce-76df-409b-bd7d-8c40ebd0e2f9}, !- Zone Air Exhaust Port List
  {6d84f9c7-9c41-460c-835d-808bdcb72ca5}, !- Zone Air Node Name
  ,                                       !- Zone Return Air Node Name
  ,                                       !- Primary Daylighting Control Name
  ,                                       !- Fraction of Zone Controlled by Primary Daylighting Control
  ,                                       !- Secondary Daylighting Control Name
  ,                                       !- Fraction of Zone Controlled by Secondary Daylighting Control
  ,                                       !- Illuminance Map Name
  ,                                       !- Group Rendering Name
  {0c935593-0af8-41de-8aca-5ed130456db4}, !- Thermostat Name
  No;                                     !- Use Ideal Air Loads

OS:Node,
  {0287bd3e-ce6d-461c-aa99-e5a158064e01}, !- Handle
  {4f457d52-2d9a-4d1c-a4a5-4f9ac566aad9}, !- Name
  {6d84f9c7-9c41-460c-835d-808bdcb72ca5}, !- Inlet Port
  ;                                       !- Outlet Port

OS:Connection,
  {6d84f9c7-9c41-460c-835d-808bdcb72ca5}, !- Handle
  {3f5a86a1-83ac-4108-b0da-9912174fbf48}, !- Name
  {a0995e58-0b4e-4a86-982d-42f91aa787c1}, !- Source Object
  11,                                     !- Outlet Port
  {0287bd3e-ce6d-461c-aa99-e5a158064e01}, !- Target Object
  2;                                      !- Inlet Port

OS:PortList,
  {9a263f32-f5fd-4ff2-9f98-b4b5d9e998db}, !- Handle
  {d62946c7-6efd-4de9-8160-a337f0f3c4ab}, !- Name
  {a0995e58-0b4e-4a86-982d-42f91aa787c1}; !- HVAC Component

OS:PortList,
  {8ed789ce-76df-409b-bd7d-8c40ebd0e2f9}, !- Handle
  {d98a01ec-553d-49a3-931d-b46e705dfee8}, !- Name
  {a0995e58-0b4e-4a86-982d-42f91aa787c1}; !- HVAC Component

OS:Sizing:Zone,
  {c830aa79-7fb0-4cf2-877c-c272d9143375}, !- Handle
  {a0995e58-0b4e-4a86-982d-42f91aa787c1}, !- Zone or ZoneList Name
  14,                                     !- Zone Cooling Design Supply Air Temperature {C}
  40,                                     !- Zone Heating Design Supply Air Temperature {C}
  0.0085,                                 !- Zone Cooling Design Supply Air Humidity Ratio {kg-H2O/kg-air}
  0.008,                                  !- Zone Heating Design Supply Air Humidity Ratio {kg-H2O/kg-air}
  ,                                       !- Zone Heating Sizing Factor
  ,                                       !- Zone Cooling Sizing Factor
  DesignDay,                              !- Cooling Design Air Flow Method
  ,                                       !- Cooling Design Air Flow Rate {m3/s}
  ,                                       !- Cooling Minimum Air Flow per Zone Floor Area {m3/s-m2}
  ,                                       !- Cooling Minimum Air Flow {m3/s}
  ,                                       !- Cooling Minimum Air Flow Fraction
  DesignDay,                              !- Heating Design Air Flow Method
  ,                                       !- Heating Design Air Flow Rate {m3/s}
  ,                                       !- Heating Maximum Air Flow per Zone Floor Area {m3/s-m2}
  ,                                       !- Heating Maximum Air Flow {m3/s}
  ,                                       !- Heating Maximum Air Flow Fraction
  ,                                       !- Design Zone Air Distribution Effectiveness in Cooling Mode
  ;                                       !- Design Zone Air Distribution Effectiveness in Heating Mode

OS:ZoneHVAC:EquipmentList,
  {6987f29d-d2a1-4135-9678-4771e7b56891}, !- Handle
  {8b560cda-83cf-418e-ae07-38fead6df9bd}, !- Name
  {a0995e58-0b4e-4a86-982d-42f91aa787c1}; !- Thermal Zone

OS:Space,
  {3e93d88e-7d29-4290-834d-9cc490387807}, !- Handle
  Cafeteria_ZN_1_FLR_1,                   !- Name
  ,                                       !- Space Type Name
  ,                                       !- Default Construction Set Name
  ,                                       !- Default Schedule Set Name
  0,                                      !- Direction of Relative North {deg}
  117,                                    !- X Origin {m}
  75,                                     !- Y Origin {m}
  0,                                      !- Z Origin {m}
  ,                                       !- Building Story Name
  {a0995e58-0b4e-4a86-982d-42f91aa787c1}, !- Thermal Zone Name
  Yes;                                    !- Part of Total Floor Area

OS:ThermostatSetpoint:DualSetpoint,
  {0c935593-0af8-41de-8aca-5ed130456db4}, !- Handle
  {43e2d66a-838b-48ad-8da2-bdf315142f80}, !- Name
  {e2718ff3-3760-421b-b305-0dfd0418d6d8}, !- Heating Setpoint Temperature Schedule Name
  {b715a529-fe2c-4dc5-9bff-45fc8465610d}; !- Cooling Setpoint Temperature Schedule Name

OS:InternalMass:Definition,
  {dfa5763f-ce77-4cff-b801-21747be4340b}, !- Handle
  Mult_Class_2_Pod_3_ZN_1_FLR_2 Internal Mass Definition, !- Name
  {ee7fd43d-7f52-4172-b97f-6b454027bebd}, !- Construction Name
  SurfaceArea,                            !- Design Level Calculation Method
  954,                                    !- Surface Area {m2}
  ,                                       !- Surface Area per Space Floor Area {dimensionless}
  ;                                       !- Surface Area per Person {m2/person}

OS:Construction,
  {ee7fd43d-7f52-4172-b97f-6b454027bebd}, !- Handle
  InteriorFurnishings,                    !- Name
  ,                                       !- Surface Rendering Name
  {dfb19fa7-2d22-4ac7-a388-ddae0534efa1}; !- Layer 1

OS:Material,
  {dfb19fa7-2d22-4ac7-a388-ddae0534efa1}, !- Handle
  Std Wood 6inch,                         !- Name
  MediumSmooth,                           !- Roughness
  0.15,                                   !- Thickness {m}
  0.12,                                   !- Conductivity {W/m-K}
  540,                                    !- Density {kg/m3}