
OS:Version,
  {424b8c32-abae-4184-be6d-7e90af477189}, !- Handle
  1.3.0;                                  !- Version Identifier

OS:Site,
  {5339f74b-e585-492a-97df-f34ded335b20}, !- Handle
  USA IL-CHICAGO-OHARE,                   !- Name
  41.77,                                  !- Latitude {deg}
  -87.75,                                 !- Longitude {deg}
  -6,                                     !- Time Zone {hr}
  190,                                    !- Elevation {m}
  City;                                   !- Terrain

OS:SimulationControl,
  {ddf5a896-bbd6-4b89-855d-d522b463bc34}, !- Handle
  Yes,                                    !- Do Zone Sizing Calculation
  Yes,                                    !- Do System Sizing Calculation
  Yes,                                    !- Do Plant Sizing Calculation
  No,                                     !- Run Simulation for Sizing Periods
  Yes,                                    !- Run Simulation for Weather File Run Periods
  0.04,                                   !- Loads Convergence Tolerance Value
  0.2,                                    !- Temperature Convergence Tolerance Value {deltaC}
  FullInteriorAndExterior,                !- Solar Distribution
  25,                                     !- Maximum Number of Warmup Days
  6;                                      !- Minimum Number of Warmup Days

OS:Surface,
  {3c0d548b-cec1-4b11-bd7d-6539cf3d92bd}, !- Handle
  Perimeter_ZN_1_wall_north,              !- Name
  Wall,                                   !- Surface Type
  {77b44a1f-a927-4591-a857-1067031b25f1}, !- Construction Name
  {c7ecc366-5fea-4102-997e-8dc9affee653}, !- Space Name
  Surface,                                !- Outside Boundary Condition
  {3e7f61e5-5431-462c-a544-73ad8db42438}, !- Outside Boundary Condition Object
  NoSun,                                  !- Sun Exposure
  NoWind,                                 !- Wind Exposure
  ,                                       !- View Factor to Ground
  ,                                       !- Number of Vertices
  22.69, 5, 3.05,                         !- X,Y,Z Vertex 1 {m}
  22.69, 5, 0,                            !- X,Y,Z Vertex 2 {m}
  5, 5, 0,                                !- X,Y,Z Vertex 3 {m}
  5, 5, 3.05;                             !- X,Y,Z Vertex 4 {m}

OS:Construction,
  {77b44a1f-a927-4591-a857-1067031b25f1}, !- Handle
  int-walls,                              !- Name
  ,                                       !- Surface Rendering Name
  {f82c7220-cc02-4510-9ff8-190e87865838}, !- Layer 1
  {f82c7220-cc02-4510-9ff8-190e87865838}; !- Layer 2

OS:Material,
  {f82c7220-cc02-4510-9ff8-190e87865838}, !- Handle
  1/2IN Gypsum,                           !- Name
  Smooth,                                 !- Roughness
  0.0127,                                 !- Thickness {m}
  0.16,                                   !- Conductivity {W/m-K}
  784.9,                                  !- Density {kg/m3}
  830,                                    !- Specific Heat {J/kg-K}
  0.9,                                    !- Thermal Absorptance
  0.92,                                   !- Solar Absorptance
  0.92;                                   !- Visible Absorptance

OS:ThermalZone,
  {5bcc15f6-b1b5-4edc-a694-262541a1337c}, !- Handle
  Perimeter_ZN_1 Thermal Zone,            !- Name
  1,                                      !- Multiplier
  ,                                       !- Ceiling Height {m}
  ,                                       !- Volume {m3}
  ,                                       !- Floor Area {m2}
  ,                                       !- Zone Inside Convection Algorithm
  ,                                       !- Zone Outside Convection Algorithm
  ,                                       !- Zone Conditioning Equipment List Name
  {b069482b-73fd-4c27-b621-ea2997be88c0}, !- Zone Air Inlet Port List
  {90fbce21-258e-45b6-a83c-c9ad3fa6725d}, !- Zone Air Exhaust Port List
  {58494e20-5fb2-48ae-90ca-45e40edb5826}, !- Zone Air Node Name
  ,                                       !- Zone Return Air Node Name
  ,                                       !- Primary Daylighting Control Name
  ,                                       !- Fraction of Zone Controlled by Primary Daylighting Control
  ,                                       !- Secondary Daylighting Control Name
  ,                                       !- Fraction of Zone Controlled by Secondary Daylighting Control
  ,                                       !- Illuminance Map Name
  ,                                       !- Group Rendering Name
  {d4b4f3ab-91f5-482f-8af3-da21cfefc406}, !- Thermostat Name
  No;                                     !- Use Ideal Air Loads

OS:Node,
  {853bd34a-41f9-497b-86b7-8497e88b43aa}, !- Handle
  {9c9269c2-39e5-45ed-b82d-0946c8650d9d}, !- Name
  {58494e20-5fb2-48ae-90ca-45e40edb5826}, !- Inlet Port
  ;                                       !- Outlet Port

OS:Connection,
  {58494e20-5fb2-48ae-90ca-45e40edb5826}, !- Handle
  {46705877-7f3e-4f8d-88ae-2a0019ba771b}, !- Name
  {5bcc15f6-b1b5-4edc-a694-262541a1337c}, !- Source Object
  11,                                     !- Outlet Port
  {853bd34a-41f9-497b-86b7-8497e88b43aa}, !- Target Object
  2;                                      !- Inlet Port

OS:PortList,
  {b069482b-73fd-4c27-b621-ea2997be88c0}, !- Handle
  {5de464e0-1075-42f2-b553-7d0dbf6817d0}, !- Name
  {5bcc15f6-b1b5-4edc-a694-262541a1337c}; !- HVAC Component

OS:PortList,
  {90fbce21-258e-45b6-a83c-c9ad3fa6725d}, !- Handle
  {7768cd41-9454-419e-aaa1-5b866a7c91ce}, !- Name
  {5bcc15f6-b1b5-4edc-a694-262541a1337c}; !- HVAC Component

OS:Sizing:Zone,
  {393873c2-9a25-475e-a881-8bac0d13e338}, !- Handle
  {5bcc15f6-b1b5-4edc-a694-262541a1337c}, !- Zone or ZoneList Name
  14,                                     !- Zone Cooling Design Supply Air Temperature {C}
  40,                                     !- Zone Heating Design Supply Air Temperature {C}
  0.0085,                                 !- Zone Cooling Design Supply Air Humidity Ratio {kg-H2O/kg-air}
  0.008,                                  !- Zone Heating Design Supply Air Humidity Ratio {kg-H2O/kg-air}
  ,                                       !- Zone Heating Sizing Factor
  ,                                       !- Zone Cooling Sizing Factor
  DesignDay,                              !- Cooling Design Air Flow Method
  ,                                       !- Cooling Design Air Flow Rate {m3/s}
  ,                                       !- Cooling Minimum Air Flow per Zone Floor Area {m3/s-m2}
  ,                                       !- Cooling Minimum Air Flow {m3/s}
  ,                                       !- Cooling Minimum Air Flow Fraction
  DesignDay,                              !- Heating Design Air Flow Method
  ,                                       !- Heating Design Air Flow Rate {m3/s}
  ,                                       !- Heating Maximum Air Flow per Zone Floor Area {m3/s-m2}
  ,                                       !- Heating Maximum Air Flow {m3/s}
  ,                                       !- Heating Maximum Air Flow Fraction
  ,                                       !- Design Zone Air Distribution Effectiveness in Cooling Mode
  ;                                       !- Design Zone Air Distribution Effectiveness in Heating Mode

OS:ZoneHVAC:EquipmentList,
  {321fe5be-949a-4b99-b102-3566e478af7e}, !- Handle
  {ce0a359a-ac72-4e4e-a9da-168b7c2ce4fc}, !- Name
  {5bcc15f6-b1b5-4edc-a694-262541a1337c}; !- Thermal Zone

OS:Space,
  {c7ecc366-5fea-4102-997e-8dc9affee653}, !- Handle
  Perimeter_ZN_1,                         !- Name
  ,                                       !- Space Type Name
  ,                                       !- Default Construction Set Name
  ,                                       !- Default Schedule Set Name
  0,                                      !- Direction of Relative North {deg}
  0,                                      !- X Origin {m}
  0,                                      !- Y Origin {m}
  0,                                      !- Z Origin {m}
  ,                                       !- Building Story Name
  {5bcc15f6-b1b5-4edc-a694-262541a1337c}, !- Thermal Zone Name
  Yes;                                    !- Part of Total Floor Area

OS:ThermostatSetpoint:DualSetpoint,
  {d4b4f3ab-91f5-482f-8af3-da21cfefc406}, !- Handle
  {f1d3adbe-6f31-4d7e-aa5c-fcbeea646713}, !- Name
  {cbf95aca-4ae9-4f14-bf3c-942d94116de4}, !- Heating Setpoint Temperature Schedule Name
  {e6a44323-beab-44a3-b5ab-69750acfe7b7}; !- Cooling Setpoint Temperature Schedule Name

OS:Schedule:Compact,
  {cbf95aca-4ae9-4f14-bf3c-942d94116de4}, !- Handle
  HTGSETP_SCH,                            !- Name
  {59fbe272-7c68-4ced-aa9f-7ceda4d3389c}, !- Schedule Type Limits Name
  Through: 12/31,                         !- Field 1
  For: Weekdays,                          !- Field 2
  Until: 06:00,                           !- Field 3
  15.6,                                   !- Field 4
  Until: 22:00,                           !- Field 5
  21.0,                                   !- Field 6
  Until: 24:00,                           !- Field 7
  15.6,                                   !- Field 8
  For: Saturday,                          !- Field 9
  Until: 06:00,                           !- Field 10
  15.6,                                   !- Field 11
  Until: 18:00,                           !- Field 12
  21.0,                                   !- Field 13
  Until: 24:00,                           !- Field 14
  15.6,                                   !- Field 15
  For: WinterDesignDay,                   !- Field 16
  Until: 24:00,                           !- Field 17
  21.0,                                   !- Field 18
  For: AllOtherDays,                      !- Field 19
  Until: 24:00,                           !- Field 20
  15.6;                                   !- Field 21

OS:ScheduleTypeLimits,
  {59fbe272-7c68-4ced-aa9f-7ceda4d3389c}, !- Handle
  Temperature,                            !- Name
  -60,                                    !- Lower Limit Value {BasedOnField A4}
  200,                                    !- Upper Limit Value {BasedOnField A4}
  CONTINUOUS,                             !- Numeric Type
  Temperature;                            !- Unit Type

OS:Schedule:Compact,
  {e6a44323-beab-44a3-b5ab-69750acfe7b7}, !- Handle
  CLGSETP_SCH,                            !- Name
  {59fbe272-7c68-4ced-aa9f-7ceda4d3389c}, !- Schedule Type Limits Name
  Through: 12/31,                         !- Field 1
  For: Weekdays SummerDesignDay,          !- Field 2
  Until: 06:00,                           !- Field 3
  26.7,                                   !- Field 4
  Until: 22:00,                           !- Field 5
  24.0,                                   !- Field 6
  Until: 24:00,                           !- Field 7
  26.7,                                   !- Field 8
  For: Saturday,                          !- Field 9
  Until: 06:00,                           !- Field 10
  26.7,                                   !- Field 11
  Until: 18:00,                           !- Field 12
  24.0,                                   !- Field 13
  Until: 24:00,                           !- Field 14
  26.7,                                   !- Field 15
  For: AllOtherDays,                      !- Field 16
  Until: 24:00,                           !- Field 17
  26.7;                                   !- Field 18

OS:SubSurface,
  {93b49d0f-b1da-4303-8b6c-a8b41aabb70f}, !- Handle
  Perimeter_ZN_3_wall_north_Window_2,     !- Name
  FixedWindow,                            !- Sub Surface Type
  {2d8e78e3-06a2-4022-8bfb-de7b643e64bb}, !- Construction Name
  {c9b3c85d-5b79-4452-a1ee-a53618db061d}, !- Surface Name
  ,                                       !- Outside Boundary Condition Object
  ,                                       !- View Factor to Ground
  ,                                       !- Shading Control Name
  ,                                       !- Frame and Divider Name
  1,                                      !- Multiplier
  ,                                       !- Number of Vertices
  21.68, 18.46, 2.424,                    !- X,Y,Z Vertex 1 {m}
  21.68, 18.46, 0.9,                      !- X,Y,Z Vertex 2 {m}
  19.85, 18.46, 0.9,                      !- X,Y,Z Vertex 3 {m}
  19.85, 18.46, 2.424;                    !- X,Y,Z Vertex 4 {m}

OS:Construction,
  {2d8e78e3-06a2-4022-8bfb-de7b643e64bb}, !- Handle
  Window Non-res Fixed,                   !- Name
  ,                                       !- Surface Rendering Name
  {5e01c5fe-6c61-4ae9-af60-b56d9a85d271}; !- Layer 1

OS:WindowMaterial:SimpleGlazingSystem,
  {5e01c5fe-6c61-4ae9-af60-b56d9a85d271}, !- Handle
  NonRes Fixed Assembly Window,           !- Name
  3.23646,                                !- U-Factor {W/m2-K}
  0.39;                                   !- Solar Heat Gain Coefficient

OS:Surface,
  {c9b3c85d-5b79-4452-a1ee-a53618db061d}, !- Handle
  Perimeter_ZN_3_wall_north,              !- Name
  Wall,                                   !- Surface Type
  {f57a76de-d55c-4e47-9e4c-9f57d41df7ea}, !- Construction Name
  {a6d2ecc6-b28b-44b9-bf07-6ff19b92253b}, !- Space Name
  Outdoors,                               !- Outside Boundary Condition
  ,                                       !- Outside Boundary Condition Object
  SunExposed,                             !- Sun Exposure
  WindExposed,                            !- Wind Exposure
  ,                                       !- View Factor to Ground
  ,                                       !- Number of Vertices
  27.69, 18.46, 3.05,                     !- X,Y,Z Vertex 1 {m}
  27.69, 18.46, 0,                        !- X,Y,Z Vertex 2 {m}
  0, 18.46, 0,                            !- X,Y,Z Vertex 3 {m}
  0, 18.46, 3.05;                         !- X,Y,Z Vertex 4 {m}

OS:Construction,
  {f57a76de-d55c-4e47-9e4c-9f57d41df7ea}, !- Handle
  Mass Non-res Ext Wall,                  !- Name
  ,                                       !- Surface Rendering Name
  {9ea98e57-608e-4f6e-b97d-883804b9df47}, !- Layer 1
  {b31319ae-b745-4487-981b-c73b5b1cdd1b}, !- Layer 2
  {4664460d-3ae3-4936-a6cf-7d54062050ac}, !- Layer 3
  {f82c7220-cc02-4510-9ff8-190e87865838}; !- Layer 4

OS:Material,
  {9ea98e57-608e-4f6e-b97d-883804b9df47}, !- Handle
  1IN Stucco,                             !- Name
  Smooth,                                 !- Roughness
  0.0253,                                 !- Thickness {m}
  0.6918,                                 !- Conductivity {W/m-K}
  1858,                                   !- Density {kg/m3}
  837,                                    !- Specific Heat {J/kg-K}
  0.9,                                    !- Thermal Absorptance
  0.92,                                   !- Solar Absorptance
  0.92;                                   !- Visible Absorptance

OS:Material,
  {b31319ae-b745-4487-981b-c73b5b1cdd1b}, !- Handle
  8IN CONCRETE HW,                        !- Name
  Rough,                                  !- Roughness
  0.2032,                                 !- Thickness {m}
  1.311,                                  !- Conductivity {W/m-K}
  2240,                                   !- Density {kg/m3}
  836.8,                                  !- Specific Heat {J/kg-K}
  0.9,                                    !- Thermal Absorptance
  0.7,                                    !- Solar Absorptance
  0.7;                                    !- Visible Absorptance

OS:Material,
  {4664460d-3ae3-4936-a6cf-7d54062050ac}, !- Handle
  Mass NonRes Wall Insulation,            !- Name
  MediumRough,                            !- Roughness
  0.0495494599433393,                     !- Thickness {m}
  0.049,                                  !- Conductivity {W/m-K}
  265,                                    !- Density {kg/m3}
  836.8,                                  !- Specific Heat {J/kg-K}
  0.9,                                    !- Thermal Absorptance
  0.7,                                    !- Solar Absorptance
  0.7;                                    !- Visible Absorptance

OS:ThermalZone,
  {048eb19b-ba83-431a-8357-b9571c238bb2}, !- Handle
  Perimeter_ZN_3 Thermal Zone,            !- Name
  1,                                      !- Multiplier
  ,                                       !- Ceiling Height {m}
  ,                                       !- Volume {m3}
  ,                                       !- Floor Area {m2}
  ,                                       !- Zone Inside Convection Algorithm
  ,                                       !- Zone Outside Convection Algorithm
  ,                                       !- Zone Conditioning Equipment List Name
  {864b155c-9106-4c6c-824a-67aa9f568ab7}, !- Zone Air Inlet Port List
  {3d87b36d-1275-488d-b14d-611b87c4f28e}, !- Zone Air Exhaust Port List
  {b0349659-a722-411f-9d1e-e940f6906278}, !- Zone Air Node Name
  ,                                       !- Zone Return Air Node Name
  ,                                       !- Primary Daylighting Control Name
  ,                                       !- Fraction of Zone Controlled by Primary Daylighting Control
  ,                                       !- Secondary Daylighting Control Name
  ,                                       !- Fraction of Zone Controlled by Secondary Daylighting Control
  ,                                       !- Illuminance Map Name
  ,                                       !- Group Rendering Name
  {2db4b408-86fd-438d-9aba-792b3f939f01}, !- Thermostat Name
  No;                                     !- Use Ideal Air Loads

OS:Node,
  {30252fad-3ba1-42bc-b279-8ce7c0ad6bad}, !- Handle
  {66357a2f-6d89-41df-a252-ab0eb29faeb3}, !- Name
  {b0349659-a722-411f-9d1e-e940f6906278}, !- Inlet Port
  ;                                       !- Outlet Port

OS:Connection,
  {b0349659-a722-411f-9d1e-e940f6906278}, !- Handle
  {265c91b6-d56e-41c2-8a44-83d309ef1e12}, !- Name
  {048eb19b-ba83-431a-8357-b9571c238bb2}, !- Source Object
  11,                                     !- Outlet Port
  {30252fad-3ba1-42bc-b279-8ce7c0ad6bad}, !- Target Object
  2;                                      !- Inlet Port

OS:PortList,
  {864b155c-9106-4c6c-824a-67aa9f568ab7}, !- Handle
  {bf7f1a37-f10d-41d6-bea0-d773ce7a458d}, !- Name
  {048eb19b-ba83-431a-8357-b9571c238bb2}; !- HVAC Component

OS:PortList,
  {3d87b36d-1275-488d-b14d-611b87c4f28e}, !- Handle
  {fd033d5b-c0ba-499b-ac93-46e69575e821}, !- Name
  {048eb19b-ba83-431a-8357-b9571c238bb2}; !- HVAC Component

OS:Sizing:Zone,
  {32e555d1-8ae2-4522-998f-4f4769e840f5}, !- Handle
  {048eb19b-ba83-431a-8357-b9571c238bb2}, !- Zone or ZoneList Name
  14,                                     !- Zone Cooling Design Supply Air Temperature {C}
  40,                                     !- Zone Heating Design Supply Air Temperature {C}
  0.0085,                                 !- Zone Cooling Design Supply Air Humidity Ratio {kg-H2O/kg-air}
  0.008,                                  !- Zone Heating Design Supply Air Humidity Ratio {kg-H2O/kg-air}
  ,                                       !- Zone Heating Sizing Factor
  ,                                       !- Zone Cooling Sizing Factor
  DesignDay,                              !- Cooling Design Air Flow Method
  ,                                       !- Cooling Design Air Flow Rate {m3/s}
  ,                                       !- Cooling Minimum Air Flow per Zone Floor Area {m3/s-m2}
  ,                                       !- Cooling Minimum Air Flow {m3/s}
  ,                                       !- Cooling Minimum Air Flow Fraction
  DesignDay,                              !- Heating Design Air Flow Method
  ,                                       !- Heating Design Air Flow Rate {m3/s}
  ,                                       !- Heating Maximum Air Flow per Zone Floor Area {m3/s-m2}
  ,                                       !- Heating Maximum Air Flow {m3/s}
  ,                                       !- Heating Maximum Air Flow Fraction
  ,                                       !- Design Zone Air Distribution Effectiveness in Cooling Mode
  ;                                       !- Design Zone Air Distribution Effectiveness in Heating Mode

OS:ZoneHVAC:EquipmentList,
  {04d0a454-c218-49ee-82bd-ede0959853d1}, !- Handle
  {40dd3995-5abb-408f-b0bf-4b0e56d689cd}, !- Name
  {048eb19b-ba83-431a-8357-b9571c238bb2}; !- Thermal Zone

OS:Space,
  {a6d2ecc6-b28b-44b9-bf07-6ff19b92253b}, !- Handle
  Perimeter_ZN_3,                         !- Name
  ,                                       !- Space Type Name
  ,                                       !- Default Construction Set Name
  ,                                       !- Default Schedule Set Name
  0,                                      !- Direction of Relative North {deg}
  0,                                      !- X Origin {m}
  0,                                      !- Y Origin {m}
  0,                                      !- Z Origin {m}
  ,                                       !- Building Story Name
  {048eb19b-ba83-431a-8357-b9571c238bb2}, !- Thermal Zone Name
  Yes;                                    !- Part of Total Floor Area

OS:ThermostatSetpoint:DualSetpoint,
  {2db4b408-86fd-438d-9aba-792b3f939f01}, !- Handle
  {8a01f420-43e1-424d-b3e1-879f8fe753c2}, !- Name
  {cbf95aca-4ae9-4f14-bf3c-942d94116de4}, !- Heating Setpoint Temperature Schedule Name
  {e6a44323-beab-44a3-b5ab-69750acfe7b7}; !- Cooling Setpoint Temperature Schedule Name

OS:Schedule:Compact,
  {01e46efc-e54e-4699-b7e7-6f63c2a89102}, !- Handle
  BLDG_OCC_SCH,                           !- Name
  {813a7b88-0181-4f63-a2e3-c4c2d5f49ced}, !- Schedule Type Limits Name
  Through: 12/31,                         !- Field 1
  For: SummerDesignDay,                   !- Field 2
  Until: 06:00,                           !- Field 3
  0.0,                                    !- Field 4
  Until: 22:00,                           !- Field 5
  1.0,                                    !- Field 6
  Until: 24:00,                           !- Field 7
  0.05,                                   !- Field 8
  For: Weekdays,                          !- Field 9
  Until: 06:00,                           !- Field 10
  0.0,                                    !- Field 11
  Until: 07:00,                           !- Field 12
  0.1,                                    !- Field 13
  Until: 08:00,                           !- Field 14
  0.2,                                    !- Field 15
  Until: 12:00,                           !- Field 16
  0.95,                                   !- Field 17
  Until: 13:00,                           !- Field 18
  0.5,                                    !- Field 19
  Until: 17:00,                           !- Field 20
  0.95,                                   !- Field 21
  Until: 18:00,                           !- Field 22
  0.3,                                    !- Field 23
  Until: 20:00,                           !- Field 24
  0.1,                                    !- Field 25
  Until: 24:00,                           !- Field 26
  0.05,                                   !- Field 27
  For: Saturday,                          !- Field 28
  Until: 06:00,                           !- Field 29
  0.0,                                    !- Field 30
  Until: 08:00,                           !- Field 31
  0.1,                                    !- Field 32
  Until: 12:00,                           !- Field 33
  0.3,                                    !- Field 34
  Until: 17:00,                           !- Field 35
  0.1,                                    !- Field 36
  Until: 24:00,                           !- Field 37
  0.0,                                    !- Field 38
  For: AllOtherDays,                      !- Field 39
  Until: 24:00,                           !- Field 40
  0.0;                                    !- Field 41

OS:ScheduleTypeLimits,
  {813a7b88-0181-4f63-a2e3-c4c2d5f49ced}, !- Handle
  Fraction,                               !- Name
  0,                                      !- Lower Limit Value {BasedOnField A4}
  1,                                      !- Upper Limit Value {BasedOnField A4}
  CONTINUOUS;                             !- Numeric Type

OS:Surface,
  {f5bc165c-ad54-4e30-9150-e9a60b409202}, !- Handle
  Attic_soffit_north,                     !- Name
  Floor,                                  !- Surface Type
  {1f0b2637-7ec0-41c0-99a6-6724633ba66d}, !- Construction Name
  {0338c52a-f4f0-48a5-8941-e81043c3db5c}, !- Space Name
  Outdoors,                               !- Outside Boundary Condition
  ,                                       !- Outside Boundary Condition Object
  SunExposed,                             !- Sun Exposure
  WindExposed,                            !- Wind Exposure
  ,                                       !- View Factor to Ground
  ,                                       !- Number of Vertices
  28.29, 19.06, 3.05,                     !- X,Y,Z Vertex 1 {m}
  27.69, 18.46, 3.05,                     !- X,Y,Z Vertex 2 {m}
  0, 18.46, 3.05,                         !- X,Y,Z Vertex 3 {m}
  -0.6, 19.06, 3.05;                      !- X,Y,Z Vertex 4 {m}

OS:Construction,
  {1f0b2637-7ec0-41c0-99a6-6724633ba66d}, !- Handle
  Attic Non-res Floor,                    !- Name
  ,                                       !- Surface Rendering Name
  {f82c7220-cc02-4510-9ff8-190e87865838}, !- Layer 1
  {c111e831-c890-4fd0-8aad-ad64a35406d3}, !- Layer 2
  {f82c7220-cc02-4510-9ff8-190e87865838}; !- Layer 3

OS:Material,
  {c111e831-c890-4fd0-8aad-ad64a35406d3}, !- Handle
  AtticFloor NonRes Insulation,           !- Name
  MediumRough,                            !- Roughness
  0.236804989096202,                      !- Thickness {m}
  0.049,                                  !- Conductivity {W/m-K}
  265,                                    !- Density {kg/m3}
  836.8,                                  !- Specific Heat {J/kg-K}
  0.9,                                    !- Thermal Absorptance
  0.7,                                    !- Solar Absorptance
  0.7;                                    !- Visible Absorptance

OS:ThermalZone,
  {51b5e150-a16b-4e25-b91e-64b5dfb92567}, !- Handle
  Attic Thermal Zone,                     !- Name
  1,                                      !- Multiplier
  ,                                       !- Ceiling Height {m}
  ,                                       !- Volume {m3}
  ,                                       !- Floor Area {m2}
  ,                                       !- Zone Inside Convection Algorithm
  ,                                       !- Zone Outside Convection Algorithm
  ,                                       !- Zone Conditioning Equipment List Name
  {6e7f4cf0-e083-4419-9b87-1fdc21f2b187}, !- Zone Air Inlet Port List
  {a439b35a-8b1b-40a9-8816-c8032b3c0fd4}, !- Zone Air Exhaust Port List
  {15fe8949-c852-4867-9e54-7af3aecb11e2}, !- Zone Air Node Name
  ,                                       !- Zone Return Air Node Name
  ,                                       !- Primary Daylighting Control Name
  ,                                       !- Fraction of Zone Controlled by Primary Daylighting Control
  ,                                       !- Secondary Daylighting Control Name
  ,                                       !- Fraction of Zone Controlled by Secondary Daylighting Control
  ,                                       !- Illuminance Map Name
  ,                                       !- Group Rendering Name
  ,                                       !- Thermostat Name
  No;                                     !- Use Ideal Air Loads

OS:Node,
  {e1aeab3c-4030-4606-846e-f5c52614164e}, !- Handle
  {75a56d15-f400-414e-9576-8aa291ad624b}, !- Name
  {15fe8949-c852-4867-9e54-7af3aecb11e2}, !- Inlet Port
  ;                                       !- Outlet Port

OS:Connection,
  {15fe8949-c852-4867-9e54-7af3aecb11e2}, !- Handle
  {81c5c4d1-2fed-42ef-bf44-dca09e3d33b3}, !- Name
  {51b5e150-a16b-4e25-b91e-64b5dfb92567}, !- Source Object
  11,                                     !- Outlet Port
  {e1aeab3c-4030-4606-846e-f5c52614164e}, !- Target Object
  2;                                      !- Inlet Port

OS:PortList,
  {6e7f4cf0-e083-4419-9b87-1fdc21f2b187}, !- Handle
  {ed21ba68-5b6d-4212-b742-cc1d7fded1d7}, !- Name
  {51b5e150-a16b-4e25-b91e-64b5dfb92567}; !- HVAC Component

OS:PortList,
  {a439b35a-8b1b-40a9-8816-c8032b3c0fd4}, !- Handle
  {6a70942e-9118-4d7f-9440-d185cab652bd}, !- Name
  {51b5e150-a16b-4e25-b91e-64b5dfb92567}; !- HVAC Component

OS:Sizing:Zone,
  {f8eab683-4ca9-4252-a250-4e730f12272a}, !- Handle
  {51b5e150-a16b-4e25-b91e-64b5dfb92567}, !- Zone or ZoneList Name
  14,                                     !- Zone Cooling Design Supply Air Temperature {C}
  40,                                     !- Zone Heating Design Supply Air Temperature {C}
  0.0085,                                 !- Zone Cooling Design Supply Air Humidity Ratio {kg-H2O/kg-air}
  0.008,                                  !- Zone Heating Design Supply Air Humidity Ratio {kg-H2O/kg-air}
  ,                                       !- Zone Heating Sizing Factor
  ,                                       !- Zone Cooling Sizing Factor
  DesignDay,                              !- Cooling Design Air Flow Method
  ,                                       !- Cooling Design Air Flow Rate {m3/s}
  ,                                       !- Cooling Minimum Air Flow per Zone Floor Area {m3/s-m2}
  ,                                       !- Cooling Minimum Air Flow {m3/s}
  ,                                       !- Cooling Minimum Air Flow Fraction
  DesignDay,                              !- Heating Design Air Flow Method
  ,                                       !- Heating Design Air Flow Rate {m3/s}