
OS:Version,
  {bb5556e9-0cdf-4a62-9aa6-e4235d78127a}, !- Handle
  1.3.0;                                  !- Version Identifier

OS:Site,
  {310f8a87-7f64-47c0-b168-fbc09faf54e5}, !- Handle
  USA IL-CHICAGO-OHARE,                   !- Name
  41.77,                                  !- Latitude {deg}
  -87.75,                                 !- Longitude {deg}
  -6,                                     !- Time Zone {hr}
  190,                                    !- Elevation {m}
  City;                                   !- Terrain

OS:SimulationControl,
  {40f24719-2ccb-4c2b-a5dd-3148d829c69e}, !- Handle
  Yes,                                    !- Do Zone Sizing Calculation
  Yes,                                    !- Do System Sizing Calculation
  Yes,                                    !- Do Plant Sizing Calculation
  No,                                     !- Run Simulation for Sizing Periods
  Yes,                                    !- Run Simulation for Weather File Run Periods
  0.04,                                   !- Loads Convergence Tolerance Value
  0.2,                                    !- Temperature Convergence Tolerance Value {deltaC}
  FullInteriorAndExterior,                !- Solar Distribution
  25,                                     !- Maximum Number of Warmup Days
  6;                                      !- Minimum Number of Warmup Days

OS:DesignSpecification:OutdoorAir,
  {72676217-2d72-465c-9031-dd3bd8a78ae3}, !- Handle
  SZ DSOA GuestRoom319,                   !- Name
  ,                                       !- Outdoor Air Method
  ,                                       !- Outdoor Air Flow per Person {m3/s-person}
  ,                                       !- Outdoor Air Flow per Floor Area {m3/s-m2}
  0.01416,                                !- Outdoor Air Flow Rate {m3/s}
  ,                                       !- Outdoor Air Flow Air Changes per Hour {1/hr}
  ;                                       !- Outdoor Air Flow Rate Fraction Schedule Name

OS:Surface,
  {f12949f7-af46-4b4a-9cfe-b535e07df595}, !- Handle
  P_CorridorFlr2_5_0_0,                   !- Name
  Wall,                                   !- Surface Type
  {f86ab715-ef8a-4b9b-a175-d0585db69ceb}, !- Construction Name
  {03c6e4e2-0e74-438a-97d6-cbba5f36419a}, !- Space Name
  Surface,                                !- Outside Boundary Condition
  {bba7c4d1-c445-43f4-9803-b0becc3dcee5}, !- Outside Boundary Condition Object
  NoSun,                                  !- Sun Exposure
  NoWind,                                 !- Wind Exposure
  ,                                       !- View Factor to Ground
  ,                                       !- Number of Vertices
  48.5119, 10.1078, 6.096,                !- X,Y,Z Vertex 1 {m}
  48.5119, 10.1078, 3.3528,               !- X,Y,Z Vertex 2 {m}
  32.6623, 10.1078, 3.3528,               !- X,Y,Z Vertex 3 {m}
  32.6623, 10.1078, 6.096;                !- X,Y,Z Vertex 4 {m}

OS:Construction,
  {f86ab715-ef8a-4b9b-a175-d0585db69ceb}, !- Handle
  int-walls,                              !- Name
  ,                                       !- Surface Rendering Name
  {65bd8a5c-1e84-45a3-b047-7ea10213c2cb}, !- Layer 1
  {65bd8a5c-1e84-45a3-b047-7ea10213c2cb}; !- Layer 2

OS:Material,
  {65bd8a5c-1e84-45a3-b047-7ea10213c2cb}, !- Handle
  1/2IN Gypsum,                           !- Name
  Smooth,                                 !- Roughness
  0.0127,                                 !- Thickness {m}
  0.16,                                   !- Conductivity {W/m-K}
  784.9,                                  !- Density {kg/m3}
  830,                                    !- Specific Heat {J/kg-K}
  0.9,                                    !- Thermal Absorptance
  0.92,                                   !- Solar Absorptance
  0.92;                                   !- Visible Absorptance

OS:ThermalZone,
  {205799ca-bdc6-41c7-830a-f11d4d1c77da}, !- Handle
  CorridorFlr2 Thermal Zone,              !- Name
  1,                                      !- Multiplier
  ,                                       !- Ceiling Height {m}
  ,                                       !- Volume {m3}
  ,                                       !- Floor Area {m2}
  ,                                       !- Zone Inside Convection Algorithm
  ,                                       !- Zone Outside Convection Algorithm
  ,                                       !- Zone Conditioning Equipment List Name
  {7c067a4d-e044-4b27-9138-679163b04e25}, !- Zone Air Inlet Port List
  {8fd230d0-ef97-475f-a3f1-39c60beccc8f}, !- Zone Air Exhaust Port List
  {96ab4faa-1cde-4da5-8c88-a4438a3a1aff}, !- Zone Air Node Name
  ,                                       !- Zone Return Air Node Name
  ,                                       !- Primary Daylighting Control Name
  ,                                       !- Fraction of Zone Controlled by Primary Daylighting Control
  ,                                       !- Secondary Daylighting Control Name
  ,                                       !- Fraction of Zone Controlled by Secondary Daylighting Control
  ,                                       !- Illuminance Map Name
  ,                                       !- Group Rendering Name
  {d1cfc616-ac40-4217-bc4f-a2442ed71056}, !- Thermostat Name
  No;                                     !- Use Ideal Air Loads

OS:Node,
  {3695653c-ca24-4e6b-b62f-668b6a8435c5}, !- Handle
  {543c3e38-1fa3-40f7-9e94-7f318291e875}, !- Name
  {96ab4faa-1cde-4da5-8c88-a4438a3a1aff}, !- Inlet Port
  ;                                       !- Outlet Port

OS:Connection,
  {96ab4faa-1cde-4da5-8c88-a4438a3a1aff}, !- Handle
  {ed30f479-48f6-4f02-8207-1411c6a7e7fa}, !- Name
  {205799ca-bdc6-41c7-830a-f11d4d1c77da}, !- Source Object
  11,                                     !- Outlet Port
  {3695653c-ca24-4e6b-b62f-668b6a8435c5}, !- Target Object
  2;                                      !- Inlet Port

OS:PortList,
  {7c067a4d-e044-4b27-9138-679163b04e25}, !- Handle
  {6095c41a-2d10-4524-a6e4-f928d8f211d2}, !- Name
  {205799ca-bdc6-41c7-830a-f11d4d1c77da}; !- HVAC Component

OS:PortList,
  {8fd230d0-ef97-475f-a3f1-39c60beccc8f}, !- Handle
  {33240640-6fc5-42fb-a2a5-cb8cb0404434}, !- Name
  {205799ca-bdc6-41c7-830a-f11d4d1c77da}; !- HVAC Component

OS:Sizing:Zone,
  {844268e8-ac6f-4973-ba2b-d2623467e74c}, !- Handle
  {205799ca-bdc6-41c7-830a-f11d4d1c77da}, !- Zone or ZoneList Name
  14,                                     !- Zone Cooling Design Supply Air Temperature {C}
  40,                                     !- Zone Heating Design Supply Air Temperature {C}
  0.0085,                                 !- Zone Cooling Design Supply Air Humidity Ratio {kg-H2O/kg-air}
  0.008,                                  !- Zone Heating Design Supply Air Humidity Ratio {kg-H2O/kg-air}
  ,                                       !- Zone Heating Sizing Factor
  ,                                       !- Zone Cooling Sizing Factor
  DesignDay,                              !- Cooling Design Air Flow Method
  ,                                       !- Cooling Design Air Flow Rate {m3/s}
  ,                                       !- Cooling Minimum Air Flow per Zone Floor Area {m3/s-m2}
  ,                                       !- Cooling Minimum Air Flow {m3/s}
  ,                                       !- Cooling Minimum Air Flow Fraction
  DesignDay,                              !- Heating Design Air Flow Method
  ,                                       !- Heating Design Air Flow Rate {m3/s}
  ,                                       !- Heating Maximum Air Flow per Zone Floor Area {m3/s-m2}
  ,                                       !- Heating Maximum Air Flow {m3/s}
  ,                                       !- Heating Maximum Air Flow Fraction
  ,                                       !- Design Zone Air Distribution Effectiveness in Cooling Mode
  ;                                       !- Design Zone Air Distribution Effectiveness in Heating Mode

OS:ZoneHVAC:EquipmentList,
  {596da4de-6234-4fdf-ba15-cea8f4665a4e}, !- Handle
  {045c2dc0-8331-49e9-b941-dc73317cff32}, !- Name
  {205799ca-bdc6-41c7-830a-f11d4d1c77da}; !- Thermal Zone

OS:Space,
  {03c6e4e2-0e74-438a-97d6-cbba5f36419a}, !- Handle
  CorridorFlr2,                           !- Name
  ,                                       !- Space Type Name
  ,                                       !- Default Construction Set Name
  ,                                       !- Default Schedule Set Name
  0,                                      !- Direction of Relative North {deg}
  0,                                      !- X Origin {m}
  0,                                      !- Y Origin {m}
  0,                                      !- Z Origin {m}
  ,                                       !- Building Story Name
  {205799ca-bdc6-41c7-830a-f11d4d1c77da}, !- Thermal Zone Name
  Yes;                                    !- Part of Total Floor Area

OS:ThermostatSetpoint:DualSetpoint,
  {d1cfc616-ac40-4217-bc4f-a2442ed71056}, !- Handle
  {78ce3400-9b8e-4832-a210-e29c2977fca4}, !- Name
  {aa640c99-cf77-4bb0-90a6-c99a3b246619}, !- Heating Setpoint Temperature Schedule Name
  {71d0ac8a-5c1c-4838-9520-8493a7020b0c}; !- Cooling Setpoint Temperature Schedule Name

OS:Schedule:Compact,
  {aa640c99-cf77-4bb0-90a6-c99a3b246619}, !- Handle
  HTGSETP_SCH,                            !- Name
  {e2751b41-b9a4-4473-ae86-071cf1a656e7}, !- Schedule Type Limits Name
  Through: 12/31,                         !- Field 1
  For: AllDays,                           !- Field 2
  Until: 24:00,                           !- Field 3
  21;                                     !- Field 4

OS:ScheduleTypeLimits,
  {e2751b41-b9a4-4473-ae86-071cf1a656e7}, !- Handle
  Temperature,                            !- Name
  -60,                                    !- Lower Limit Value {BasedOnField A4}
  200,                                    !- Upper Limit Value {BasedOnField A4}
  CONTINUOUS,                             !- Numeric Type
  Temperature;                            !- Unit Type

OS:Schedule:Compact,
  {71d0ac8a-5c1c-4838-9520-8493a7020b0c}, !- Handle
  CLGSETP_SCH,                            !- Name
  {e2751b41-b9a4-4473-ae86-071cf1a656e7}, !- Schedule Type Limits Name
  Through: 12/31,                         !- Field 1
  For: AllDays,                           !- Field 2
  Until: 24:00,                           !- Field 3
  24;                                     !- Field 4

OS:Construction,
  {9e279010-def0-41ee-ab49-ff1a7a16e81c}, !- Handle
  Window Non-res Fixed,                   !- Name
  ,                                       !- Surface Rendering Name
  {2d458063-41c4-4f27-868e-f78d55931f24}; !- Layer 1

OS:WindowMaterial:SimpleGlazingSystem,
  {2d458063-41c4-4f27-868e-f78d55931f24}, !- Handle
  NonRes Fixed Assembly Window,           !- Name
  3.23646,                                !- U-Factor {W/m2-K}
  0.39;                                   !- Solar Heat Gain Coefficient

OS:Surface,
  {757432f5-ada4-4362-aea1-3b7c080e22e9}, !- Handle
  P_CorridorFlr2_7_0_0,                   !- Name
  Wall,                                   !- Surface Type
  {f86ab715-ef8a-4b9b-a175-d0585db69ceb}, !- Construction Name
  {03c6e4e2-0e74-438a-97d6-cbba5f36419a}, !- Space Name
  Surface,                                !- Outside Boundary Condition
  {8f3dce8d-34f7-464b-8504-5926cf9e1af0}, !- Outside Boundary Condition Object
  NoSun,                                  !- Sun Exposure
  NoWind,                                 !- Wind Exposure
  ,                                       !- View Factor to Ground
  ,                                       !- Number of Vertices
  28.6999, 10.1078, 6.096,                !- X,Y,Z Vertex 1 {m}
  28.6999, 10.1078, 3.3528,               !- X,Y,Z Vertex 2 {m}
  26.8711, 10.1078, 3.3528,               !- X,Y,Z Vertex 3 {m}
  26.8711, 10.1078, 6.096;                !- X,Y,Z Vertex 4 {m}

OS:InternalMass:Definition,
  {ef13acb4-ff0b-4610-8384-c214fcb459a5}, !- Handle
  GuestRoom402_405 Internal Mass Definition, !- Name
  {df41ceab-0985-4d1c-9b92-911500337339}, !- Construction Name
  SurfaceArea,                            !- Design Level Calculation Method
  260.8908,                               !- Surface Area {m2}
  ,                                       !- Surface Area per Space Floor Area {dimensionless}
  ;                                       !- Surface Area per Person {m2/person}

OS:Construction,
  {df41ceab-0985-4d1c-9b92-911500337339}, !- Handle
  InteriorFurnishings,                    !- Name
  ,                                       !- Surface Rendering Name
  {9789d1f9-4d44-4581-a02e-473ac7609fda}; !- Layer 1

OS:Material,
  {9789d1f9-4d44-4581-a02e-473ac7609fda}, !- Handle
  Std Wood 6inch,                         !- Name
  MediumSmooth,                           !- Roughness
  0.15,                                   !- Thickness {m}
  0.12,                                   !- Conductivity {W/m-K}
  540,                                    !- Density {kg/m3}
  1210,                                   !- Specific Heat {J/kg-K}
  0.9,                                    !- Thermal Absorptance
  0.7,                                    !- Solar Absorptance
  0.7;                                    !- Visible Absorptance

OS:InternalMass,
  {d5c3a94f-4fd3-495b-a6ee-654d5918d386}, !- Handle
  GuestRoom402_405 Internal Mass,         !- Name
  {ef13acb4-ff0b-4610-8384-c214fcb459a5}, !- Internal Mass Definition Name
  {71a13d01-db45-40cc-8451-9d7e624fe1d9}; !- Space or SpaceType Name

OS:ThermalZone,
  {6c9619c2-7f2f-4e26-9760-48c754e602a9}, !- Handle
  GuestRoom402_405 Thermal Zone,          !- Name
  1,                                      !- Multiplier
  ,                                       !- Ceiling Height {m}
  ,                                       !- Volume {m3}
  ,                                       !- Floor Area {m2}
  ,                                       !- Zone Inside Convection Algorithm
  ,                                       !- Zone Outside Convection Algorithm
  ,                                       !- Zone Conditioning Equipment List Name
  {0c9df458-037a-4174-8d47-66b56d8db0e2}, !- Zone Air Inlet Port List
  {aa5e7c45-134e-490d-9ac3-d258d3008623}, !- Zone Air Exhaust Port List
  {9cadea93-a344-474f-ad0b-40e18e2213b6}, !- Zone Air Node Name
  ,                                       !- Zone Return Air Node Name
  ,                                       !- Primary Daylighting Control Name
  ,                                       !- Fraction of Zone Controlled by Primary Daylighting Control
  ,                                       !- Secondary Daylighting Control Name
  ,                                       !- Fraction of Zone Controlled by Secondary Daylighting Control
  ,                                       !- Illuminance Map Name
  ,                                       !- Group Rendering Name
  {09c21d2f-3442-4a11-9bef-107fd4ff482b}, !- Thermostat Name
  No;                                     !- Use Ideal Air Loads

OS:Node,
  {8632f6e2-a36f-4792-8d08-8bb841030f18}, !- Handle
  {4a78247d-ff46-4801-8642-dda7f66573a5}, !- Name
  {9cadea93-a344-474f-ad0b-40e18e2213b6}, !- Inlet Port
  ;                                       !- Outlet Port

OS:Connection,
  {9cadea93-a344-474f-ad0b-40e18e2213b6}, !- Handle
  {7a533fe5-659c-4941-abb5-76d76cca4df1}, !- Name
  {6c9619c2-7f2f-4e26-9760-48c754e602a9}, !- Source Object
  11,                                     !- Outlet Port
  {8632f6e2-a36f-4792-8d08-8bb841030f18}, !- Target Object
  2;                                      !- Inlet Port

OS:PortList,
  {0c9df458-037a-4174-8d47-66b56d8db0e2}, !- Handle
  {6b8371f6-a101-4e41-b04c-61c13ea45474}, !- Name
  {6c9619c2-7f2f-4e26-9760-48c754e602a9}; !- HVAC Component

OS:PortList,
  {aa5e7c45-134e-490d-9ac3-d258d3008623}, !- Handle
  {ce46fbe1-a170-4910-a79d-8a28f789ee26}, !- Name
  {6c9619c2-7f2f-4e26-9760-48c754e602a9}; !- HVAC Component

OS:Sizing:Zone,
  {c41b66f2-5991-45c4-893b-f0c649f2bb26}, !- Handle
  {6c9619c2-7f2f-4e26-9760-48c754e602a9}, !- Zone or ZoneList Name
  14,                                     !- Zone Cooling Design Supply Air Temperature {C}
  40,                                     !- Zone Heating Design Supply Air Temperature {C}
  0.0085,                                 !- Zone Cooling Design Supply Air Humidity Ratio {kg-H2O/kg-air}
  0.008,                                  !- Zone Heating Design Supply Air Humidity Ratio {kg-H2O/kg-air}
  ,                                       !- Zone Heating Sizing Factor
  ,                                       !- Zone Cooling Sizing Factor
  DesignDay,                              !- Cooling Design Air Flow Method
  ,                                       !- Cooling Design Air Flow Rate {m3/s}
  ,                                       !- Cooling Minimum Air Flow per Zone Floor Area {m3/s-m2}
  ,                                       !- Cooling Minimum Air Flow {m3/s}
  ,                                       !- Cooling Minimum Air Flow Fraction
  DesignDay,                              !- Heating Design Air Flow Method
  ,                                       !- Heating Design Air Flow Rate {m3/s}
  ,                                       !- Heating Maximum Air Flow per Zone Floor Area {m3/s-m2}
  ,                                       !- Heating Maximum Air Flow {m3/s}
  ,                                       !- Heating Maximum Air Flow Fraction
  ,                                       !- Design Zone Air Distribution Effectiveness in Cooling Mode
  ;                                       !- Design Zone Air Distribution Effectiveness in Heating Mode

OS:ZoneHVAC:EquipmentList,
  {4ec9f6fc-6b15-4a64-b282-d167ab013b6c}, !- Handle
  {cc76ce01-e1ef-41fa-9382-96a541fa471b}, !- Name
  {6c9619c2-7f2f-4e26-9760-48c754e602a9}; !- Thermal Zone

OS:Space,
  {71a13d01-db45-40cc-8451-9d7e624fe1d9}, !- Handle
  GuestRoom402_405,                       !- Name
  ,                                       !- Space Type Name
  ,                                       !- Default Construction Set Name
  ,                                       !- Default Schedule Set Name
  0,                                      !- Direction of Relative North {deg}
  0,                                      !- X Origin {m}
  0,                                      !- Y Origin {m}
  0,                                      !- Z Origin {m}
  ,                                       !- Building Story Name
  {6c9619c2-7f2f-4e26-9760-48c754e602a9}, !- Thermal Zone Name
  Yes;                                    !- Part of Total Floor Area

OS:ThermostatSetpoint:DualSetpoint,
  {09c21d2f-3442-4a11-9bef-107fd4ff482b}, !- Handle
  {105c0e65-7542-46ce-8b2f-403483c967e4}, !- Name
  {aa640c99-cf77-4bb0-90a6-c99a3b246619}, !- Heating Setpoint Temperature Schedule Name
  {71d0ac8a-5c1c-4838-9520-8493a7020b0c}; !- Cooling Setpoint Temperature Schedule Name

OS:Surface,
  {295ceaf4-f23a-4230-b16c-820f8c6236bd}, !- Handle
  P_GuestRoom313_10216_0_10123,           !- Name
  Wall,                                   !- Surface Type
  {f86ab715-ef8a-4b9b-a175-d0585db69ceb}, !- Construction Name
  {d5d8cabc-f935-4c60-b7db-366e59b38f3f}, !- Space Name
  Surface,                                !- Outside Boundary Condition
  {d88f9ce6-ebae-47ba-bdfe-a8346546a551}, !- Outside Boundary Condition Object
  NoSun,                                  !- Sun Exposure
  NoWind,                                 !- Wind Exposure
  ,                                       !- View Factor to Ground
  ,                                       !- Number of Vertices
  52.4743, 8.279, 8.8392,                 !- X,Y,Z Vertex 1 {m}
  52.4743, 8.279, 6.096,                  !- X,Y,Z Vertex 2 {m}
  48.5119, 8.279, 6.096,                  !- X,Y,Z Vertex 3 {m}
  48.5119, 8.279, 8.8392;                 !- X,Y,Z Vertex 4 {m}

OS:ThermalZone,
  {6252e7eb-d18a-4ea1-a17b-581dd3a89a78}, !- Handle
  GuestRoom313 Thermal Zone,              !- Name
  1,                                      !- Multiplier
  ,                                       !- Ceiling Height {m}
  ,                                       !- Volume {m3}
  ,                                       !- Floor Area {m2}
  ,                                       !- Zone Inside Convection Algorithm
  ,                                       !- Zone Outside Convection Algorithm
  ,                                       !- Zone Conditioning Equipment List Name
  {de2c5f67-2317-411e-a986-a12a50a9a3c9}, !- Zone Air Inlet Port List
  {6f225a4b-4558-439d-8e0a-389cf8caa7e4}, !- Zone Air Exhaust Port List
  {33fa9700-c914-489c-80a9-a6058d0d00a7}, !- Zone Air Node Name
  ,                                       !- Zone Return Air Node Name
  ,                                       !- Primary Daylighting Control Name
  ,                                       !- Fraction of Zone Controlled by Primary Daylighting Control
  ,                                       !- Secondary Daylighting Control Name
  ,                                       !- Fraction of Zone Controlled by Secondary Daylighting Control
  ,                                       !- Illuminance Map Name
  ,                                       !- Group Rendering Name
  {d2c7c6a5-f8bb-4958-a48c-c6b8e1c8ba50}, !- Thermostat Name
  No;                                     !- Use Ideal Air Loads

OS:Node,
  {51f5a3e4-1411-4ed0-9482-52d635c762e8}, !- Handle
  {49f42cb1-758e-4567-a2a1-eb7b2fe1d810}, !- Name
  {33fa9700-c914-489c-80a9-a6058d0d00a7}, !- Inlet Port
  ;                                       !- Outlet Port

OS:Connection,
  {33fa9700-c914-489c-80a9-a6058d0d00a7}, !- Handle
  {e2fc60e2-9745-4582-b48d-7592318c452f}, !- Name
  {6252e7eb-d18a-4ea1-a17b-581dd3a89a78}, !- Source Object
  11,                                     !- Outlet Port
  {51f5a3e4-1411-4ed0-9482-52d635c762e8}, !- Target Object
  2;                                      !- Inlet Port

OS:PortList,
  {de2c5f67-2317-411e-a986-a12a50a9a3c9}, !- Handle
  {3ae89382-af7a-4efb-8e9b-a71f97bd1f63}, !- Name
  {6252e7eb-d18a-4ea1-a17b-581dd3a89a78}; !- HVAC Component

OS:PortList,
  {6f225a4b-4558-439d-8e0a-389cf8caa7e4}, !- Handle
  {4c6536d6-b04f-46a6-8361-e70cd22f822b}, !- Name
  {6252e7eb-d18a-4ea1-a17b-581dd3a89a78}; !- HVAC Component

OS:Sizing:Zone,
  {c65a934d-f457-45c9-9af2-b0e46e0d674d}, !- Handle
  {6252e7eb-d18a-4ea1-a17b-581dd3a89a78}, !- Zone or ZoneList Name
  14,                                     !- Zone Cooling Design Supply Air Temperature {C}
  40,                                     !- Zone Heating Design Supply Air Temperature {C}
  0.0085,                                 !- Zone Cooling Design Supply Air Humidity Ratio {kg-H2O/kg-air}
  0.008,                                  !- Zone Heating Design Supply Air Humidity Ratio {kg-H2O/kg-air}
  ,                                       !- Zone Heating Sizing Factor
  ,                                       !- Zone Cooling Sizing Factor
  DesignDay,                              !- Cooling Design Air Flow Method
  ,                                       !- Cooling Design Air Flow Rate {m3/s}
  ,                                       !- Cooling Minimum Air Flow per Zone Floor Area {m3/s-m2}
  ,                                       !- Cooling Minimum Air Flow {m3/s}
  ,                                       !- Cooling Minimum Air Flow Fraction
  DesignDay,                              !- Heating Design Air Flow Method
  ,                                       !- Heating Design Air Flow Rate {m3/s}
  ,                                       !- Heating Maximum Air Flow per Zone Floor Area {m3/s-m2}
  ,                                       !- Heating Maximum Air Flow {m3/s}
  ,                                       !- Heating Maximum Air Flow Fraction
  ,                                       !- Design Zone Air Distribution Effectiveness in Cooling Mode
  ;                                       !- Design Zone Air Distribution Effectiveness in Heating Mode

OS:ZoneHVAC:EquipmentList,
  {0be838fd-ee27-4ddd-9af6-cfde9d818870}, !- Handle
  {032b40c8-e2dd-465e-ae59-092deef21ed5}, !- Name
  {6252e7eb-d18a-4ea1-a17b-581dd3a89a78}; !- Thermal Zone

OS:Space,
  {d5d8cabc-f935-4c60-b7db-366e59b38f3f}, !- Handle
  GuestRoom313,                           !- Name
  ,                                       !- Space Type Name
  ,                                       !- Default Construction Set Name
  ,                                       !- Default Schedule Set Name
  0,                                      !- Direction of Relative North {deg}
  0,                                      !- X Origin {m}
  0,                                      !- Y Origin {m}
  0,                                      !- Z Origin {m}
  ,                                       !- Building Story Name
  {6252e7eb-d18a-4ea1-a17b-581dd3a89a78}, !- Thermal Zone Name
  Yes;                                    !- Part of Total Floor Area

OS:ThermostatSetpoint:DualSetpoint,
  {d2c7c6a5-f8bb-4958-a48c-c6b8e1c8ba50}, !- Handle
  {79224a82-3c48-4f64-a2aa-d678efe50c26}, !- Name
  {aa640c99-cf77-4bb0-90a6-c99a3b246619}, !- Heating Setpoint Temperature Schedule Name
  {71d0ac8a-5c1c-4838-9520-8493a7020b0c}; !- Cooling Setpoint Temperature Schedule Name

OS:InternalMass:Definition,
  {efb3bef9-e8b1-4a5e-9b43-3885346f259b}, !- Handle
  GuestRoom415_418 Internal Mass Definition, !- Name
  {df41ceab-0985-4d1c-9b92-911500337339}, !- Construction Name
  SurfaceArea,                            !- Design Level Calculation Method
  260.8717,                               !- Surface Area {m2}
  ,                                       !- Surface Area per Space Floor Area {dimensionless}
  ;                                       !- Surface Area per Person {m2/person}

OS:InternalMass,
  {acc546bb-b354-4c1c-8ca4-f32e7f5df25d}, !- Handle
  GuestRoom415_418 Internal Mass,         !- Name
  {efb3bef9-e8b1-4a5e-9b43-3885346f259b}, !- Internal Mass Definition Name
  {dcdaee91-dbf2-4bcd-94c8-87261f84b3c3}; !- Space or SpaceType Name

OS:ThermalZone,
  {2fca757d-e6c8-4694-b933-72a7a105bb9d}, !- Handle
  GuestRoom415_418 Thermal Zone,          !- Name
  1,                                      !- Multiplier
  ,                                       !- Ceiling Height {m}
  ,                                       !- Volume {m3}
  ,                                       !- Floor Area {m2}
  ,                                       !- Zone Inside Convection Algorithm
  ,                                       !- Zone Outside Convection Algorithm
  ,                                       !- Zone Conditioning Equipment List Name
  {98a424c7-bf9e-4d89-939b-a0b4462d3681}, !- Zone Air Inlet Port List
  {cb69ef05-161a-4440-8b0c-c1d2b4d75dfa}, !- Zone Air Exhaust Port List
  {09594aa3-4043-45bd-ac0b-a0fd1e9b17e3}, !- Zone Air Node Name
  ,                                       !- Zone Return Air Node Name
  ,                                       !- Primary Daylighting Control Name
  ,                                       !- Fraction of Zone Controlled by Primary Daylighting Control
  ,                                       !- Secondary Daylighting Control Name
  ,                                       !- Fraction of Zone Controlled by Secondary Daylighting Control
  ,                                       !- Illuminance Map Name
  ,                                       !- Group Rendering Name
  {1dc0395d-0fed-4fb8-8834-c3a8877f7c70}, !- Thermostat Name
  No;                                     !- Use Ideal Air Loads

OS:Node,
  {4785699e-9754-405c-a98c-9bc6f4bc3e94}, !- Handle
  {21b62aeb-ca3a-411b-b8c7-1c73eca6c2d4}, !- Name
  {09594aa3-4043-45bd-ac0b-a0fd1e9b17e3}, !- Inlet Port
  ;                                       !- Outlet Port

OS:Connection,
  {09594aa3-4043-45bd-ac0b-a0fd1e9b17e3}, !- Handle
  {0c8a3140-7c07-4ebf-a94b-73375978314e}, !- Name
  {2fca757d-e6c8-4694-b933-72a7a105bb9d}, !- Source Object
  11,                                     !- Outlet Port
  {4785699e-9754-405c-a98c-9bc6f4bc3e94}, !- Target Object
  2;                                      !- Inlet Port

OS:PortList,
  {98a424c7-bf9e-4d89-939b-a0b4462d3681}, !- Handle
  {f14299c2-603d-41ec-b43d-520d2505b176}, !- Name
  {2fca757d-e6c8-4694-b933-72a7a105bb9d}; !- HVAC Component

OS:PortList,
  {cb69ef05-161a-4440-8b0c-c1d2b4d75dfa}, !- Handle
  {8946a562-63bf-4f62-870d-4e4ce65023b9}, !- Name
  {2fca757d-e6c8-4694-b933-72a7a105bb9d}; !- HVAC Component

OS:Sizing:Zone,
  {0453b431-15fa-4ea0-b552-445fce4011ff}, !- Handle
  {2fca757d-e6c8-4694-b933-72a7a105bb9d}, !- Zone or ZoneList Name
  14,                                     !- Zone Cooling Design Supply Air Temperature {C}
  40,                                     !- Zone Heating Design Supply Air Temperature {C}
  0.0085,                                 !- Zone Cooling Design Supply Air Humidity Ratio {kg-H2O/kg-air}
  0.008,                                  !- Zone Heating Design Supply Air Humidity Ratio {kg-H2O/kg-air}
  ,                                       !- Zone Heating Sizing Factor
  ,                                       !- Zone Cooling Sizing Factor
  DesignDay,                              !- Cooling Design Air Flow Method
  ,                                       !- Cooling Design Air Flow Rate {m3/s}
  ,                                       !- Cooling Minimum Air Flow per Zone Floor Area {m3/s-m2}
  ,                                       !- Cooling Minimum Air Flow {m3/s}
  ,                                       !- Cooling Minimum Air Flow Fraction
  DesignDay,                              !- Heating Design Air Flow Method
  ,                                       !- Heating Design Air Flow Rate {m3/s}
  ,                                       !- Heating Maximum Air Flow per Zone Floor Area {m3/s-m2}
  ,                                       !- Heating Maximum Air Flow {m3/s}