
OS:Version,
  {17d9db6f-ad7c-40b7-8f96-7e0841f89e33}, !- Handle
  1.3.0;                                  !- Version Identifier

OS:Site,
  {97b6fde4-0b9a-4c9f-9ad8-d6b22cd22de4}, !- Handle
  USA IL-CHICAGO-OHARE,                   !- Name
  41.77,                                  !- Latitude {deg}
  -87.75,                                 !- Longitude {deg}
  -6,                                     !- Time Zone {hr}
  190,                                    !- Elevation {m}
  City;                                   !- Terrain

OS:SimulationControl,
  {07e8360f-1b15-49dd-9b51-9cf0970014c2}, !- Handle
  Yes,                                    !- Do Zone Sizing Calculation
  Yes,                                    !- Do System Sizing Calculation
  Yes,                                    !- Do Plant Sizing Calculation
  No,                                     !- Run Simulation for Sizing Periods
  Yes,                                    !- Run Simulation for Weather File Run Periods
  0.04,                                   !- Loads Convergence Tolerance Value
  0.2,                                    !- Temperature Convergence Tolerance Value {deltaC}
  FullInteriorAndExterior,                !- Solar Distribution
  25,                                     !- Maximum Number of Warmup Days
  6;                                      !- Minimum Number of Warmup Days

OS:SubSurface,
  {cf866514-dd28-4985-b7a1-9c6a1da40cd5}, !- Handle
  Point_Of_Sale_Wall_South_Glazing,       !- Name
  FixedWindow,                            !- Sub Surface Type
  {052293ba-84f7-4ed5-8f59-dcaa11cbbc93}, !- Construction Name
  {51c9c74a-47c7-42cb-9f91-1229f34c595a}, !- Surface Name
  ,                                       !- Outside Boundary Condition Object
  ,                                       !- View Factor to Ground
  ,                                       !- Shading Control Name
  ,                                       !- Frame and Divider Name
  1,                                      !- Multiplier
  ,                                       !- Number of Vertices
  0.05, 0, 2.66,                          !- X,Y,Z Vertex 1 {m}
  0.05, 0, 1.14,                          !- X,Y,Z Vertex 2 {m}
  25.085, 0, 1.14,                        !- X,Y,Z Vertex 3 {m}
  25.085, 0, 2.66;                        !- X,Y,Z Vertex 4 {m}

OS:Construction,
  {052293ba-84f7-4ed5-8f59-dcaa11cbbc93}, !- Handle
  Window Non-res Fixed,                   !- Name
  ,                                       !- Surface Rendering Name
  {474f1601-b6c8-49e9-a63b-4d9553543c82}; !- Layer 1

OS:WindowMaterial:SimpleGlazingSystem,
  {474f1601-b6c8-49e9-a63b-4d9553543c82}, !- Handle
  NonRes Fixed Assembly Window,           !- Name
  3.23646,                                !- U-Factor {W/m2-K}
  0.39;                                   !- Solar Heat Gain Coefficient

OS:Surface,
  {51c9c74a-47c7-42cb-9f91-1229f34c595a}, !- Handle
  Point_Of_Sale_Wall_South,               !- Name
  Wall,                                   !- Surface Type
  {17f837a7-8f2a-458e-ac40-106eeaaffa93}, !- Construction Name
  {466e499c-89d9-4d74-aaec-4ff056798ab0}, !- Space Name
  Outdoors,                               !- Outside Boundary Condition
  ,                                       !- Outside Boundary Condition Object
  SunExposed,                             !- Sun Exposure
  WindExposed,                            !- Wind Exposure
  ,                                       !- View Factor to Ground
  ,                                       !- Number of Vertices
  0, 0, 6.096,                            !- X,Y,Z Vertex 1 {m}
  0, 0, 0,                                !- X,Y,Z Vertex 2 {m}
  25.135, 0, 0,                           !- X,Y,Z Vertex 3 {m}
  25.135, 0, 6.096;                       !- X,Y,Z Vertex 4 {m}

OS:Construction,
  {17f837a7-8f2a-458e-ac40-106eeaaffa93}, !- Handle
  Mass Non-res Ext Wall,                  !- Name
  ,                                       !- Surface Rendering Name
  {e7157f0c-8b18-40b5-a4b0-15e96f9adca9}, !- Layer 1
  {9587acac-b41f-4b1a-8ffe-fadfcb54dc06}, !- Layer 2
  {fadba31e-2d1e-4756-aa67-128b8f1f66dd}, !- Layer 3
  {a537578f-6f7e-4059-afc7-1e34be0d7747}; !- Layer 4

OS:Material,
  {e7157f0c-8b18-40b5-a4b0-15e96f9adca9}, !- Handle
  1IN Stucco,                             !- Name
  Smooth,                                 !- Roughness
  0.0253,                                 !- Thickness {m}
  0.6918,                                 !- Conductivity {W/m-K}
  1858,                                   !- Density {kg/m3}
  837,                                    !- Specific Heat {J/kg-K}
  0.9,                                    !- Thermal Absorptance
  0.92,                                   !- Solar Absorptance
  0.92;                                   !- Visible Absorptance

OS:Material,
  {9587acac-b41f-4b1a-8ffe-fadfcb54dc06}, !- Handle
  8IN CONCRETE HW,                        !- Name
  Rough,                                  !- Roughness
  0.2032,                                 !- Thickness {m}
  1.311,                                  !- Conductivity {W/m-K}
  2240,                                   !- Density {kg/m3}
  836.8,                                  !- Specific Heat {J/kg-K}
  0.9,                                    !- Thermal Absorptance
  0.7,                                    !- Solar Absorptance
  0.7;                                    !- Visible Absorptance

OS:Material,
  {fadba31e-2d1e-4756-aa67-128b8f1f66dd}, !- Handle
  Mass NonRes Wall Insulation,            !- Name
  MediumRough,                            !- Roughness
  0.0495494599433393,                     !- Thickness {m}
  0.049,                                  !- Conductivity {W/m-K}
  265,                                    !- Density {kg/m3}
  836.8,                                  !- Specific Heat {J/kg-K}
  0.9,                                    !- Thermal Absorptance
  0.7,                                    !- Solar Absorptance
  0.7;                                    !- Visible Absorptance

OS:Material,
  {a537578f-6f7e-4059-afc7-1e34be0d7747}, !- Handle
  1/2IN Gypsum,                           !- Name
  Smooth,                                 !- Roughness
  0.0127,                                 !- Thickness {m}
  0.16,                                   !- Conductivity {W/m-K}
  784.9,                                  !- Density {kg/m3}
  830,                                    !- Specific Heat {J/kg-K}
  0.9,                                    !- Thermal Absorptance
  0.92,                                   !- Solar Absorptance
  0.92;                                   !- Visible Absorptance

OS:ThermalZone,
  {8a21c127-e721-4d0d-ad28-ac86dbf44c14}, !- Handle
  Point_Of_Sale Thermal Zone,             !- Name
  1,                                      !- Multiplier
  ,                                       !- Ceiling Height {m}
  ,                                       !- Volume {m3}
  ,                                       !- Floor Area {m2}
  ,                                       !- Zone Inside Convection Algorithm
  ,                                       !- Zone Outside Convection Algorithm
  ,                                       !- Zone Conditioning Equipment List Name
  {5ba8ec49-1ff9-4183-8d97-047b3d73169a}, !- Zone Air Inlet Port List
  {99e6f101-f501-45d7-ab2f-2662cb8115d9}, !- Zone Air Exhaust Port List
  {eb9d1135-8656-4d1a-aeda-6517114ff8c9}, !- Zone Air Node Name
  ,                                       !- Zone Return Air Node Name
  ,                                       !- Primary Daylighting Control Name
  ,                                       !- Fraction of Zone Controlled by Primary Daylighting Control
  ,                                       !- Secondary Daylighting Control Name
  ,                                       !- Fraction of Zone Controlled by Secondary Daylighting Control
  ,                                       !- Illuminance Map Name
  ,                                       !- Group Rendering Name
  {7cf7838f-ec21-4371-80a8-ed418bee779e}, !- Thermostat Name
  No;                                     !- Use Ideal Air Loads

OS:Node,
  {418f4095-a08f-4874-83e4-1e3f41ac12ef}, !- Handle
  {ce15ad19-682d-44ac-b5ec-307a9f6e34a5}, !- Name
  {eb9d1135-8656-4d1a-aeda-6517114ff8c9}, !- Inlet Port
  ;                                       !- Outlet Port

OS:Connection,
  {eb9d1135-8656-4d1a-aeda-6517114ff8c9}, !- Handle
  {bd7e8ccb-af20-4407-8001-8caccb17e56e}, !- Name
  {8a21c127-e721-4d0d-ad28-ac86dbf44c14}, !- Source Object
  11,                                     !- Outlet Port
  {418f4095-a08f-4874-83e4-1e3f41ac12ef}, !- Target Object
  2;                                      !- Inlet Port

OS:PortList,
  {5ba8ec49-1ff9-4183-8d97-047b3d73169a}, !- Handle
  {61a259df-a40d-417c-b4c0-6eb53a9c7158}, !- Name
  {8a21c127-e721-4d0d-ad28-ac86dbf44c14}; !- HVAC Component

OS:PortList,
  {99e6f101-f501-45d7-ab2f-2662cb8115d9}, !- Handle
  {c2dcf2ad-54e1-468e-ba27-cc37e838ca3a}, !- Name
  {8a21c127-e721-4d0d-ad28-ac86dbf44c14}; !- HVAC Component

OS:Sizing:Zone,
  {ad925bf2-296e-4566-beaf-b58fa0253f88}, !- Handle
  {8a21c127-e721-4d0d-ad28-ac86dbf44c14}, !- Zone or ZoneList Name
  14,                                     !- Zone Cooling Design Supply Air Temperature {C}
  40,                                     !- Zone Heating Design Supply Air Temperature {C}
  0.0085,                                 !- Zone Cooling Design Supply Air Humidity Ratio {kg-H2O/kg-air}
  0.008,                                  !- Zone Heating Design Supply Air Humidity Ratio {kg-H2O/kg-air}
  ,                                       !- Zone Heating Sizing Factor
  ,                                       !- Zone Cooling Sizing Factor
  DesignDay,                              !- Cooling Design Air Flow Method
  ,                                       !- Cooling Design Air Flow Rate {m3/s}
  ,                                       !- Cooling Minimum Air Flow per Zone Floor Area {m3/s-m2}
  ,                                       !- Cooling Minimum Air Flow {m3/s}
  ,                                       !- Cooling Minimum Air Flow Fraction
  DesignDay,                              !- Heating Design Air Flow Method
  ,                                       !- Heating Design Air Flow Rate {m3/s}
  ,                                       !- Heating Maximum Air Flow per Zone Floor Area {m3/s-m2}
  ,                                       !- Heating Maximum Air Flow {m3/s}
  ,                                       !- Heating Maximum Air Flow Fraction
  ,                                       !- Design Zone Air Distribution Effectiveness in Cooling Mode
  ;                                       !- Design Zone Air Distribution Effectiveness in Heating Mode

OS:ZoneHVAC:EquipmentList,
  {7d0b0876-eaf9-4e2b-9a02-5953fa35bde1}, !- Handle
  {6b9a19f3-8fc1-473c-bff8-e88c7333d866}, !- Name
  {8a21c127-e721-4d0d-ad28-ac86dbf44c14}; !- Thermal Zone

OS:Space,
  {466e499c-89d9-4d74-aaec-4ff056798ab0}, !- Handle
  Point_Of_Sale,                          !- Name
  ,                                       !- Space Type Name
  ,                                       !- Default Construction Set Name
  ,                                       !- Default Schedule Set Name
  0,                                      !- Direction of Relative North {deg}
  0,                                      !- X Origin {m}
  0,                                      !- Y Origin {m}
  0,                                      !- Z Origin {m}
  ,                                       !- Building Story Name
  {8a21c127-e721-4d0d-ad28-ac86dbf44c14}, !- Thermal Zone Name
  Yes;                                    !- Part of Total Floor Area

OS:ThermostatSetpoint:DualSetpoint,
  {7cf7838f-ec21-4371-80a8-ed418bee779e}, !- Handle
  {8a254091-f556-4ef8-a820-3d6f67c47f2a}, !- Name
  {5c454094-7110-4305-9f8a-5a508390b145}, !- Heating Setpoint Temperature Schedule Name
  {fbdda096-c78b-4481-a8ad-2d3937175602}; !- Cooling Setpoint Temperature Schedule Name

OS:Schedule:Compact,
  {5c454094-7110-4305-9f8a-5a508390b145}, !- Handle
  HTGSETP_SCH,                            !- Name
  {2ede9aad-7a3a-464b-8d09-b153fc52fe62}, !- Schedule Type Limits Name
  Through: 12/31,                         !- Field 1
  For: Weekdays,                          !- Field 2
  Until: 06:00,                           !- Field 3
  15.6,                                   !- Field 4
  Until: 21:00,                           !- Field 5
  21.0,                                   !- Field 6
  Until: 24:00,                           !- Field 7
  15.6,                                   !- Field 8
  For SummerDesignDay,                    !- Field 9
  Until: 24:00,                           !- Field 10
  15.6,                                   !- Field 11
  For WinterDesignDay,                    !- Field 12
  Until: 24:00,                           !- Field 13
  21.0,                                   !- Field 14
  For: Saturday,                          !- Field 15
  Until: 06:00,                           !- Field 16
  15.6,                                   !- Field 17
  Until: 22:00,                           !- Field 18
  21.0,                                   !- Field 19
  Until: 24:00,                           !- Field 20
  15.6,                                   !- Field 21
  For: Sunday Holidays AllOtherDays,      !- Field 22
  Until:  8:00,                           !- Field 23
  15.6,                                   !- Field 24
  Until: 19:00,                           !- Field 25
  21.,                                    !- Field 26
  Until: 24:00,                           !- Field 27
  15.6;                                   !- Field 28

OS:ScheduleTypeLimits,
  {2ede9aad-7a3a-464b-8d09-b153fc52fe62}, !- Handle
  Temperature,                            !- Name
  -60,                                    !- Lower Limit Value {BasedOnField A4}
  200,                                    !- Upper Limit Value {BasedOnField A4}
  CONTINUOUS,                             !- Numeric Type
  Temperature;                            !- Unit Type

OS:Schedule:Compact,
  {fbdda096-c78b-4481-a8ad-2d3937175602}, !- Handle
  CLGSETP_SCH,                            !- Name
  {2ede9aad-7a3a-464b-8d09-b153fc52fe62}, !- Schedule Type Limits Name
  Through: 12/31,                         !- Field 1
  For: Weekdays SummerDesignDay,          !- Field 2
  Until: 06:00,                           !- Field 3
  30.0,                                   !- Field 4
  Until: 21:00,                           !- Field 5
  24.0,                                   !- Field 6
  Until: 24:00,                           !- Field 7
  30.0,                                   !- Field 8
  For: Saturday,                          !- Field 9
  Until: 06:00,                           !- Field 10
  30.0,                                   !- Field 11
  Until: 22:00,                           !- Field 12
  24.0,                                   !- Field 13
  Until: 24:00,                           !- Field 14
  30.0,                                   !- Field 15
  For WinterDesignDay,                    !- Field 16
  Until: 24:00,                           !- Field 17
  30.0,                                   !- Field 18
  For: Sunday Holidays AllOtherDays,      !- Field 19
  Until: 8:00,                            !- Field 20
  30.0,                                   !- Field 21
  Until: 19:00,                           !- Field 22
  24.0,                                   !- Field 23
  Until: 24:00,                           !- Field 24
  30.0;                                   !- Field 25

OS:Surface,
  {acbc97e4-97c4-4b85-8528-a4b56bd745ae}, !- Handle
  Front_Retail_Roof,                      !- Name
  RoofCeiling,                            !- Surface Type
  {a3b4954c-7608-40c1-af76-2328f95e78d3}, !- Construction Name
  {9fc0bcf3-922f-4fb6-a0fc-19b5789c8d9c}, !- Space Name
  Outdoors,                               !- Outside Boundary Condition
  ,                                       !- Outside Boundary Condition Object
  SunExposed,                             !- Sun Exposure
  WindExposed,                            !- Wind Exposure
  ,                                       !- View Factor to Ground
  ,                                       !- Number of Vertices
  25.135, 0, 6.096,                       !- X,Y,Z Vertex 1 {m}
  25.135, 6, 6.096,                       !- X,Y,Z Vertex 2 {m}
  0, 6, 6.096,                            !- X,Y,Z Vertex 3 {m}
  0, 0, 6.096;                            !- X,Y,Z Vertex 4 {m}

OS:Construction,
  {a3b4954c-7608-40c1-af76-2328f95e78d3}, !- Handle
  IEAD Non-res Roof,                      !- Name
  ,                                       !- Surface Rendering Name
  {eed11165-f157-4628-86e5-e8f21b7c67fc}, !- Layer 1
  {c2d25dd4-7922-423f-98b9-d0933025c180}, !- Layer 2
  {62a8ef73-5b4d-48a6-a477-2451142fe845}; !- Layer 3

OS:Material,
  {eed11165-f157-4628-86e5-e8f21b7c67fc}, !- Handle
  Roof Membrane,                          !- Name
  VeryRough,                              !- Roughness
  0.0095,                                 !- Thickness {m}
  0.16,                                   !- Conductivity {W/m-K}
  1121.29,                                !- Density {kg/m3}
  1460,                                   !- Specific Heat {J/kg-K}
  0.9,                                    !- Thermal Absorptance
  0.7,                                    !- Solar Absorptance
  0.7;                                    !- Visible Absorptance

OS:Material,
  {c2d25dd4-7922-423f-98b9-d0933025c180}, !- Handle
  IEAD NonRes Roof Insulation,            !- Name
  MediumRough,                            !- Roughness
  0.127338688569477,                      !- Thickness {m}
  0.049,                                  !- Conductivity {W/m-K}
  265,                                    !- Density {kg/m3}
  836.8,                                  !- Specific Heat {J/kg-K}
  0.9,                                    !- Thermal Absorptance
  0.7,                                    !- Solar Absorptance
  0.7;                                    !- Visible Absorptance

OS:Material,
  {62a8ef73-5b4d-48a6-a477-2451142fe845}, !- Handle
  Metal Decking,                          !- Name
  MediumSmooth,                           !- Roughness
  0.0015,                                 !- Thickness {m}
  45.006,                                 !- Conductivity {W/m-K}
  7680,                                   !- Density {kg/m3}
  418.4,                                  !- Specific Heat {J/kg-K}
  0.9,                                    !- Thermal Absorptance
  0.7,                                    !- Solar Absorptance
  0.3;                                    !- Visible Absorptance

OS:ThermalZone,
  {4204309c-748e-4bef-a448-c1bad29ac405}, !- Handle
  Front_Retail Thermal Zone,              !- Name
  1,                                      !- Multiplier
  ,                                       !- Ceiling Height {m}
  ,                                       !- Volume {m3}
  ,                                       !- Floor Area {m2}
  ,                                       !- Zone Inside Convection Algorithm
  ,                                       !- Zone Outside Convection Algorithm
  ,                                       !- Zone Conditioning Equipment List Name
  {a9fcf523-47d9-42fd-b7c8-84f06f30f1e1}, !- Zone Air Inlet Port List
  {2f63a16b-8558-4a15-bce6-6d1d86dac326}, !- Zone Air Exhaust Port List
  {f37cc9a5-9997-4b3c-a98e-3513a52e9af0}, !- Zone Air Node Name
  ,                                       !- Zone Return Air Node Name
  ,                                       !- Primary Daylighting Control Name
  ,                                       !- Fraction of Zone Controlled by Primary Daylighting Control
  ,                                       !- Secondary Daylighting Control Name
  ,                                       !- Fraction of Zone Controlled by Secondary Daylighting Control
  ,                                       !- Illuminance Map Name
  ,                                       !- Group Rendering Name
  {29caf245-587e-4e74-843b-af4621157d99}, !- Thermostat Name
  No;                                     !- Use Ideal Air Loads

OS:Node,
  {157cac5b-6a57-440a-b8a5-f374891d37e9}, !- Handle
  {8f60280e-635c-4287-bc2e-0d41f01fcfd8}, !- Name
  {f37cc9a5-9997-4b3c-a98e-3513a52e9af0}, !- Inlet Port
  ;                                       !- Outlet Port

OS:Connection,
  {f37cc9a5-9997-4b3c-a98e-3513a52e9af0}, !- Handle
  {c922c267-883d-4512-873b-ef7532ed38c0}, !- Name
  {4204309c-748e-4bef-a448-c1bad29ac405}, !- Source Object
  11,                                     !- Outlet Port
  {157cac5b-6a57-440a-b8a5-f374891d37e9}, !- Target Object
  2;                                      !- Inlet Port

OS:PortList,
  {a9fcf523-47d9-42fd-b7c8-84f06f30f1e1}, !- Handle
  {2173e00e-ebe1-4e5c-b954-5487b9950f47}, !- Name
  {4204309c-748e-4bef-a448-c1bad29ac405}; !- HVAC Component

OS:PortList,
  {2f63a16b-8558-4a15-bce6-6d1d86dac326}, !- Handle
  {900e6b0b-289d-46aa-82e0-aeb7add4b167}, !- Name
  {4204309c-748e-4bef-a448-c1bad29ac405}; !- HVAC Component

OS:Sizing:Zone,
  {2f9bd477-fba0-48e2-ac3f-219ba661ce2b}, !- Handle
  {4204309c-748e-4bef-a448-c1bad29ac405}, !- Zone or ZoneList Name
  14,                                     !- Zone Cooling Design Supply Air Temperature {C}
  40,                                     !- Zone Heating Design Supply Air Temperature {C}
  0.0085,                                 !- Zone Cooling Design Supply Air Humidity Ratio {kg-H2O/kg-air}
  0.008,                                  !- Zone Heating Design Supply Air Humidity Ratio {kg-H2O/kg-air}
  ,                                       !- Zone Heating Sizing Factor
  ,                                       !- Zone Cooling Sizing Factor
  DesignDay,                              !- Cooling Design Air Flow Method
  ,                                       !- Cooling Design Air Flow Rate {m3/s}
  ,                                       !- Cooling Minimum Air Flow per Zone Floor Area {m3/s-m2}
  ,                                       !- Cooling Minimum Air Flow {m3/s}
  ,                                       !- Cooling Minimum Air Flow Fraction
  DesignDay,                              !- Heating Design Air Flow Method
  ,                                       !- Heating Design Air Flow Rate {m3/s}
  ,                                       !- Heating Maximum Air Flow per Zone Floor Area {m3/s-m2}
  ,                                       !- Heating Maximum Air Flow {m3/s}
  ,                                       !- Heating Maximum Air Flow Fraction
  ,                                       !- Design Zone Air Distribution Effectiveness in Cooling Mode
  ;                                       !- Design Zone Air Distribution Effectiveness in Heating Mode

OS:ZoneHVAC:EquipmentList,
  {66ad3496-9bc7-4035-9b48-e4586d97b465}, !- Handle
  {717a6990-e1e1-4a5a-94e8-77ce8c569ca3}, !- Name
  {4204309c-748e-4bef-a448-c1bad29ac405}; !- Thermal Zone

OS:Space,
  {9fc0bcf3-922f-4fb6-a0fc-19b5789c8d9c}, !- Handle
  Front_Retail,                           !- Name
  ,                                       !- Space Type Name
  ,                                       !- Default Construction Set Name
  ,                                       !- Default Schedule Set Name
  0,                                      !- Direction of Relative North {deg}
  29.135,                                 !- X Origin {m}
  0,                                      !- Y Origin {m}
  0,                                      !- Z Origin {m}
  ,                                       !- Building Story Name
  {4204309c-748e-4bef-a448-c1bad29ac405}, !- Thermal Zone Name
  Yes;                                    !- Part of Total Floor Area

OS:ThermostatSetpoint:DualSetpoint,
  {29caf245-587e-4e74-843b-af4621157d99}, !- Handle
  {094b9afa-d51e-4b45-a8d7-08719ba50b1f}, !- Name
  {5c454094-7110-4305-9f8a-5a508390b145}, !- Heating Setpoint Temperature Schedule Name
  {fbdda096-c78b-4481-a8ad-2d3937175602}; !- Cooling Setpoint Temperature Schedule Name

OS:ScheduleTypeLimits,
  {7fe240a9-0fc2-48a5-abc1-b55b029b98a1}, !- Handle
  Humidity,                               !- Name
  10,                                     !- Lower Limit Value {BasedOnField A4}
  90,                                     !- Upper Limit Value {BasedOnField A4}
  CONTINUOUS;                             !- Numeric Type

OS:Construction,
  {b9cbfcec-6d8d-4c8a-8324-7d099616762e}, !- Handle
  DropCeiling,                            !- Name
  ,                                       !- Surface Rendering Name
  {1e7251d4-f58b-4c61-89b3-45e0f825aa4d}; !- Layer 1

OS:Material,
  {1e7251d4-f58b-4c61-89b3-45e0f825aa4d}, !- Handle
  Std AC02,                               !- Name
  MediumSmooth,                           !- Roughness
  0.0127,                                 !- Thickness {m}
  0.057,                                  !- Conductivity {W/m-K}
  288,                                    !- Density {kg/m3}
  1339,                                   !- Specific Heat {J/kg-K}
  0.9,                                    !- Thermal Absorptance
  0.7,                                    !- Solar Absorptance
  0.2;                                    !- Visible Absorptance

OS:SpaceInfiltration:DesignFlowRate,
  {7fb902b2-2872-48bd-8940-b0eaed79d1e9}, !- Handle
  Back_Space_Infiltration,                !- Name
  {49751888-8375-4bb8-a7aa-e644283aebb3}, !- Space or SpaceType Name
  {b9b17c41-3304-4b3e-ba2e-73e74286b10b}, !- Schedule Name
  Flow/ExteriorArea,                      !- Design Flow Rate Calculation Method
  ,                                       !- Design Flow Rate {m3/s}
  ,                                       !- Flow per Space Floor Area {m3/s-m2}
  0.000302,                               !- Flow per Exterior Surface Area {m3/s-m2}
  ,                                       !- Air Changes per Hour {1/hr}
  1,                                      !- Constant Term Coefficient
  0,                                      !- Temperature Term Coefficient
  0,                                      !- Velocity Term Coefficient
  0;                                      !- Velocity Squared Term Coefficient

OS:ThermalZone,
  {a3839539-31f4-4c6b-ab3f-701df2289ac4}, !- Handle
  Back_Space Thermal Zone,                !- Name
  1,                                      !- Multiplier
  ,                                       !- Ceiling Height {m}
  ,                                       !- Volume {m3}
  ,                                       !- Floor Area {m2}
  ,                                       !- Zone Inside Convection Algorithm
  ,                                       !- Zone Outside Convection Algorithm
  ,                                       !- Zone Conditioning Equipment List Name
  {c6fa730b-f1c2-48f3-890e-8bbf59335999}, !- Zone Air Inlet Port List
  {f4d9487e-7e50-48f1-8799-70abf43630a6}, !- Zone Air Exhaust Port List
  {05653746-5f9d-4ca7-b787-d864afef5e1a}, !- Zone Air Node Name
  ,                                       !- Zone Return Air Node Name
  ,                                       !- Primary Daylighting Control Name
  ,                                       !- Fraction of Zone Controlled by Primary Daylighting Control
  ,                                       !- Secondary Daylighting Control Name
  ,                                       !- Fraction of Zone Controlled by Secondary Daylighting Control
  ,                                       !- Illuminance Map Name
  ,                                       !- Group Rendering Name
  {2ac71b90-a3c2-49bd-95a6-cfaacbd2ca2f}, !- Thermostat Name
  No;                                     !- Use Ideal Air Loads

OS:Node,
  {e49d15c5-369f-45dc-9464-98322f572089}, !- Handle
  {1ccac37c-c34f-4e06-aabe-eb8957e1d05d}, !- Name
  {05653746-5f9d-4ca7-b787-d864afef5e1a}, !- Inlet Port
  ;                                       !- Outlet Port

OS:Connection,
  {05653746-5f9d-4ca7-b787-d864afef5e1a}, !- Handle
  {c8b50ff5-3171-4b85-9994-ede67d6c7c47}, !- Name
  {a3839539-31f4-4c6b-ab3f-701df2289ac4}, !- Source Object
  11,                                     !- Outlet Port
  {e49d15c5-369f-45dc-9464-98322f572089}, !- Target Object
  2;                                      !- Inlet Port

OS:PortList,
  {c6fa730b-f1c2-48f3-890e-8bbf59335999}, !- Handle
  {12cbf0f0-ecb1-42a9-9df8-03b9445777e7}, !- Name
  {a3839539-31f4-4c6b-ab3f-701df2289ac4}; !- HVAC Component

OS:PortList,
  {f4d9487e-7e50-48f1-8799-70abf43630a6}, !- Handle
  {d9e12285-fff1-4abe-83be-0aea40408301}, !- Name
  {a3839539-31f4-4c6b-ab3f-701df2289ac4}; !- HVAC Component

OS:Sizing:Zone,
  {694ba8a2-68b2-4f0e-988a-f59f28adab89}, !- Handle
  {a3839539-31f4-4c6b-ab3f-701df2289ac4}, !- Zone or ZoneList Name
  14,                                     !- Zone Cooling Design Supply Air Temperature {C}
  40,                                     !- Zone Heating Design Supply Air Temperature {C}
  0.0085,                                 !- Zone Cooling Design Supply Air Humidity Ratio {kg-H2O/kg-air}
  0.008,                                  !- Zone Heating Design Supply Air Humidity Ratio {kg-H2O/kg-air}
  ,                                       !- Zone Heating Sizing Factor
  ,                                       !- Zone Cooling Sizing Factor
  DesignDay,                              !- Cooling Design Air Flow Method
  ,                                       !- Cooling Design Air Flow Rate {m3/s}
  ,                                       !- Cooling Minimum Air Flow per Zone Floor Area {m3/s-m2}
  ,                                       !- Cooling Minimum Air Flow {m3/s}
  ,                                       !- Cooling Minimum Air Flow Fraction