
OS:Version,
  {0019007c-03da-4409-a3af-e712ef90e1a0}, !- Handle
  1.3.0;                                  !- Version Identifier

OS:Site,
  {6f34d63f-a8b8-47b6-9747-4cdaf6b192f5}, !- Handle
  USA IL-CHICAGO-OHARE,                   !- Name
  41.77,                                  !- Latitude {deg}
  -87.75,                                 !- Longitude {deg}
  -6,                                     !- Time Zone {hr}
  190,                                    !- Elevation {m}
  City;                                   !- Terrain

OS:SimulationControl,
  {8fa41bba-3250-4d1d-bd37-6534c382e0c0}, !- Handle
  Yes,                                    !- Do Zone Sizing Calculation
  Yes,                                    !- Do System Sizing Calculation
  Yes,                                    !- Do Plant Sizing Calculation
  No,                                     !- Run Simulation for Sizing Periods
  Yes,                                    !- Run Simulation for Weather File Run Periods
  0.04,                                   !- Loads Convergence Tolerance Value
  0.2,                                    !- Temperature Convergence Tolerance Value {deltaC}
  FullInteriorAndExterior,                !- Solar Distribution
  25,                                     !- Maximum Number of Warmup Days
  6;                                      !- Minimum Number of Warmup Days

OS:Meter,
  {be91277a-7c87-47b9-8889-a51811341685}, !- Handle
  InteriorLights:Electricity,             !- Name
  hourly,                                 !- Reporting Frequency
  False,                                  !- Meter File Only
  False;                                  !- Cumulative

OS:Schedule:Compact,
  {3edf1d75-16be-42e3-b33f-365e3c084744}, !- Handle
  WORK_EFF_SCH,                           !- Name
  {df4111bf-a840-4166-87c4-380878efb116}, !- Schedule Type Limits Name
  Through: 12/31,                         !- Field 1
  For: AllDays,                           !- Field 2
  Until: 24:00,                           !- Field 3
  0.0;                                    !- Field 4

OS:ScheduleTypeLimits,
  {df4111bf-a840-4166-87c4-380878efb116}, !- Handle
  Fraction,                               !- Name
  0,                                      !- Lower Limit Value {BasedOnField A4}
  1,                                      !- Upper Limit Value {BasedOnField A4}
  CONTINUOUS;                             !- Numeric Type

OS:People:Definition,
  {b1b5d289-042e-418d-a29a-4867d6365732}, !- Handle
  SMstore7 People Definition,             !- Name
  Area/Person,                            !- Number of People Calculation Method
  ,                                       !- Number of People {people}
  ,                                       !- People per Space Floor Area {person/m2}
  6.19,                                   !- Space Floor Area per Person {m2/person}
  0.3,                                    !- Fraction Radiant
  ,                                       !- Sensible Heat Fraction
  ,                                       !- Carbon Dioxide Generation Rate {m3/s-W}
  No,                                     !- Enable ASHRAE 55 Comfort Warnings
  ZoneAveraged,                           !- Mean Radiant Temperature Calculation Type
  FANGER;                                 !- Thermal Comfort Model Type 1

OS:People,
  {9ac3a6fc-f73e-4414-9980-0902b1698b28}, !- Handle
  SMstore7 People,                        !- Name
  {b1b5d289-042e-418d-a29a-4867d6365732}, !- People Definition Name
  {1998fef4-45f8-4dfe-9457-c486beca9aa2}, !- Space or SpaceType Name
  {d0cfce4f-3b58-4dc0-80d5-7a9ad60fd906}, !- Number of People Schedule Name
  {7f1fb034-d617-4dc8-ae10-efb889f41041}, !- Activity Level Schedule Name
  ,                                       !- Surface Name/Angle Factor List Name
  {3edf1d75-16be-42e3-b33f-365e3c084744}, !- Work Efficiency Schedule Name
  {c768d87f-5b68-4835-b865-6e2f09edb33c}, !- Clothing Insulation Schedule Name
  {9b0e4d95-3180-454c-9747-9f1145569b19}; !- Air Velocity Schedule Name

OS:ThermalZone,
  {b49639c5-aa73-43e7-b118-ebcc7837810b}, !- Handle
  SMstore7 Thermal Zone,                  !- Name
  1,                                      !- Multiplier
  ,                                       !- Ceiling Height {m}
  ,                                       !- Volume {m3}
  ,                                       !- Floor Area {m2}
  ,                                       !- Zone Inside Convection Algorithm
  ,                                       !- Zone Outside Convection Algorithm
  ,                                       !- Zone Conditioning Equipment List Name
  {750fbc02-31fe-417d-b646-561c6a169ef3}, !- Zone Air Inlet Port List
  {550bd79e-2e9c-4163-abfc-f031b0144b6f}, !- Zone Air Exhaust Port List
  {2fdba26c-5a24-4377-8775-4b59ce0f4d4b}, !- Zone Air Node Name
  ,                                       !- Zone Return Air Node Name
  ,                                       !- Primary Daylighting Control Name
  ,                                       !- Fraction of Zone Controlled by Primary Daylighting Control
  ,                                       !- Secondary Daylighting Control Name
  ,                                       !- Fraction of Zone Controlled by Secondary Daylighting Control
  ,                                       !- Illuminance Map Name
  ,                                       !- Group Rendering Name
  {182b8f5f-39d1-4124-9b21-2e595dd92d61}, !- Thermostat Name
  No;                                     !- Use Ideal Air Loads

OS:Node,
  {88527d94-d57a-4633-969b-f6850f448f38}, !- Handle
  {02615882-a7bf-4303-b001-637a3d8ad53d}, !- Name
  {2fdba26c-5a24-4377-8775-4b59ce0f4d4b}, !- Inlet Port
  ;                                       !- Outlet Port

OS:Connection,
  {2fdba26c-5a24-4377-8775-4b59ce0f4d4b}, !- Handle
  {375ac8ce-7e7d-4865-8ebd-7ccc83634adb}, !- Name
  {b49639c5-aa73-43e7-b118-ebcc7837810b}, !- Source Object
  11,                                     !- Outlet Port
  {88527d94-d57a-4633-969b-f6850f448f38}, !- Target Object
  2;                                      !- Inlet Port

OS:PortList,
  {750fbc02-31fe-417d-b646-561c6a169ef3}, !- Handle
  {1d29f86c-2b67-43cb-84ef-083877f3541a}, !- Name
  {b49639c5-aa73-43e7-b118-ebcc7837810b}; !- HVAC Component

OS:PortList,
  {550bd79e-2e9c-4163-abfc-f031b0144b6f}, !- Handle
  {33522edc-2b36-46df-bd31-70ed7680dc3f}, !- Name
  {b49639c5-aa73-43e7-b118-ebcc7837810b}; !- HVAC Component

OS:Sizing:Zone,
  {4b102907-65e4-4a3e-ac5a-ddcb6c23f59a}, !- Handle
  {b49639c5-aa73-43e7-b118-ebcc7837810b}, !- Zone or ZoneList Name
  14,                                     !- Zone Cooling Design Supply Air Temperature {C}
  40,                                     !- Zone Heating Design Supply Air Temperature {C}
  0.0085,                                 !- Zone Cooling Design Supply Air Humidity Ratio {kg-H2O/kg-air}
  0.008,                                  !- Zone Heating Design Supply Air Humidity Ratio {kg-H2O/kg-air}
  ,                                       !- Zone Heating Sizing Factor
  ,                                       !- Zone Cooling Sizing Factor
  DesignDay,                              !- Cooling Design Air Flow Method
  ,                                       !- Cooling Design Air Flow Rate {m3/s}
  ,                                       !- Cooling Minimum Air Flow per Zone Floor Area {m3/s-m2}
  ,                                       !- Cooling Minimum Air Flow {m3/s}
  ,                                       !- Cooling Minimum Air Flow Fraction
  DesignDay,                              !- Heating Design Air Flow Method
  ,                                       !- Heating Design Air Flow Rate {m3/s}
  ,                                       !- Heating Maximum Air Flow per Zone Floor Area {m3/s-m2}
  ,                                       !- Heating Maximum Air Flow {m3/s}
  ,                                       !- Heating Maximum Air Flow Fraction
  ,                                       !- Design Zone Air Distribution Effectiveness in Cooling Mode
  ;                                       !- Design Zone Air Distribution Effectiveness in Heating Mode

OS:ZoneHVAC:EquipmentList,
  {c8246442-d7a2-4a64-8440-741c8ac377a6}, !- Handle
  {5e4861df-934f-40f6-9481-55dcf4bde5fd}, !- Name
  {b49639c5-aa73-43e7-b118-ebcc7837810b}; !- Thermal Zone

OS:Space,
  {1998fef4-45f8-4dfe-9457-c486beca9aa2}, !- Handle
  SMstore7,                               !- Name
  ,                                       !- Space Type Name
  ,                                       !- Default Construction Set Name
  ,                                       !- Default Schedule Set Name
  0,                                      !- Direction of Relative North {deg}
  0,                                      !- X Origin {m}
  0,                                      !- Y Origin {m}
  0,                                      !- Z Origin {m}
  ,                                       !- Building Story Name
  {b49639c5-aa73-43e7-b118-ebcc7837810b}, !- Thermal Zone Name
  Yes;                                    !- Part of Total Floor Area

OS:ThermostatSetpoint:DualSetpoint,
  {182b8f5f-39d1-4124-9b21-2e595dd92d61}, !- Handle
  {cc56e2ff-67f7-424d-80d6-972dd99159b7}, !- Name
  {e6f604e5-ec22-4217-baf3-9b1256d82d86}, !- Heating Setpoint Temperature Schedule Name
  {e0486981-237b-4c0a-ad61-509487cc6db1}; !- Cooling Setpoint Temperature Schedule Name

OS:Schedule:Compact,
  {e6f604e5-ec22-4217-baf3-9b1256d82d86}, !- Handle
  HTGSETP_SCH,                            !- Name
  {bdcb82d4-246c-4d16-a1a3-7be2e244785c}, !- Schedule Type Limits Name
  Through: 12/31,                         !- Field 1
  For: Weekdays,                          !- Field 2
  Until: 06:00,                           !- Field 3
  15.6,                                   !- Field 4
  Until: 21:00,                           !- Field 5
  21.0,                                   !- Field 6
  Until: 24:00,                           !- Field 7
  15.6,                                   !- Field 8
  For SummerDesignDay,                    !- Field 9
  Until: 24:00,                           !- Field 10
  15.6,                                   !- Field 11
  For WinterDesignDay,                    !- Field 12
  Until: 24:00,                           !- Field 13
  21.0,                                   !- Field 14
  For: Saturday,                          !- Field 15
  Until: 06:00,                           !- Field 16
  15.6,                                   !- Field 17
  Until: 22:00,                           !- Field 18
  21.0,                                   !- Field 19
  Until: 24:00,                           !- Field 20
  15.6,                                   !- Field 21
  For: AllOtherDays,                      !- Field 22
  Until:  8:00,                           !- Field 23
  15.6,                                   !- Field 24
  Until: 19:00,                           !- Field 25
  21.,                                    !- Field 26
  Until: 24:00,                           !- Field 27
  15.6;                                   !- Field 28

OS:ScheduleTypeLimits,
  {bdcb82d4-246c-4d16-a1a3-7be2e244785c}, !- Handle
  Temperature,                            !- Name
  -60,                                    !- Lower Limit Value {BasedOnField A4}
  200,                                    !- Upper Limit Value {BasedOnField A4}
  CONTINUOUS,                             !- Numeric Type
  Temperature;                            !- Unit Type

OS:Schedule:Compact,
  {e0486981-237b-4c0a-ad61-509487cc6db1}, !- Handle
  CLGSETP_SCH,                            !- Name
  {bdcb82d4-246c-4d16-a1a3-7be2e244785c}, !- Schedule Type Limits Name
  Through: 12/31,                         !- Field 1
  For: Weekdays SummerDesignDay,          !- Field 2
  Until: 06:00,                           !- Field 3
  30.0,                                   !- Field 4
  Until: 21:00,                           !- Field 5
  24.0,                                   !- Field 6
  Until: 24:00,                           !- Field 7
  30.0,                                   !- Field 8
  For: Saturday,                          !- Field 9
  Until: 06:00,                           !- Field 10
  30.0,                                   !- Field 11
  Until: 22:00,                           !- Field 12
  24.0,                                   !- Field 13
  Until: 24:00,                           !- Field 14
  30.0,                                   !- Field 15
  For WinterDesignDay,                    !- Field 16
  Until: 24:00,                           !- Field 17
  30.0,                                   !- Field 18
  For: Sunday Holidays AllOtherDays,      !- Field 19
  Until: 8:00,                            !- Field 20
  30.0,                                   !- Field 21
  Until: 19:00,                           !- Field 22
  24.0,                                   !- Field 23
  Until: 24:00,                           !- Field 24
  30.0;                                   !- Field 25

OS:Schedule:Compact,
  {d0cfce4f-3b58-4dc0-80d5-7a9ad60fd906}, !- Handle
  BLDG_OCC_SCH,                           !- Name
  {df4111bf-a840-4166-87c4-380878efb116}, !- Schedule Type Limits Name
  Through: 12/31,                         !- Field 1
  For: Weekdays,                          !- Field 2
  Until: 07:00,                           !- Field 3
  0.0,                                    !- Field 4
  Until: 08:00,                           !- Field 5
  0.1,                                    !- Field 6
  Until: 09:00,                           !- Field 7
  0.2,                                    !- Field 8
  Until: 11:00,                           !- Field 9
  0.5,                                    !- Field 10
  Until: 15:00,                           !- Field 11
  0.7,                                    !- Field 12
  Until: 16:00,                           !- Field 13
  0.8,                                    !- Field 14
  Until: 17:00,                           !- Field 15
  0.7,                                    !- Field 16
  Until: 19:00,                           !- Field 17
  0.5,                                    !- Field 18
  Until: 21:00,                           !- Field 19
  0.3,                                    !- Field 20
  Until: 24:00,                           !- Field 21
  0.0,                                    !- Field 22
  For: SummerDesignDay WinterDesignDay,   !- Field 23
  Until: 24:00,                           !- Field 24
  1.0,                                    !- Field 25
  For: Saturday,                          !- Field 26
  Until: 07:00,                           !- Field 27
  0.0,                                    !- Field 28
  Until: 08:00,                           !- Field 29
  0.1,                                    !- Field 30
  Until: 09:00,                           !- Field 31
  0.2,                                    !- Field 32
  Until: 10:00,                           !- Field 33
  0.5,                                    !- Field 34
  Until: 11:00,                           !- Field 35
  0.6,                                    !- Field 36
  Until: 17:00,                           !- Field 37
  0.8,                                    !- Field 38
  Until: 18:00,                           !- Field 39
  0.6,                                    !- Field 40
  Until: 21:00,                           !- Field 41
  0.2,                                    !- Field 42
  Until: 22:00,                           !- Field 43
  0.1,                                    !- Field 44
  Until: 24:00,                           !- Field 45
  0.0,                                    !- Field 46
  For: AllOtherDays,                      !- Field 47
  Until: 09:00,                           !- Field 48
  0.0,                                    !- Field 49
  Until: 10:00,                           !- Field 50
  0.1,                                    !- Field 51
  Until: 12:00,                           !- Field 52
  0.2,                                    !- Field 53
  Until: 17:00,                           !- Field 54
  0.4,                                    !- Field 55
  Until: 18:00,                           !- Field 56
  0.2,                                    !- Field 57
  Until: 19:00,                           !- Field 58
  0.1,                                    !- Field 59
  Until: 24:00,                           !- Field 60
  0.0;                                    !- Field 61

OS:Schedule:Compact,
  {7f1fb034-d617-4dc8-ae10-efb889f41041}, !- Handle
  ACTIVITY_SCH,                           !- Name
  {5673f865-3834-4f35-b4d8-e2948bbd3efd}, !- Schedule Type Limits Name
  Through: 12/31,                         !- Field 1
  For: AllDays,                           !- Field 2
  Until: 24:00,                           !- Field 3
  120.;                                   !- Field 4

OS:ScheduleTypeLimits,
  {95e29cfe-58a4-46d0-8bcb-8c536e427282}, !- Handle
  {e12e2a50-909c-4be6-b4eb-6a66f1982c8a}; !- Name

OS:ScheduleTypeLimits,
  {5673f865-3834-4f35-b4d8-e2948bbd3efd}, !- Handle
  ActivityLevel,                          !- Name
  0,                                      !- Lower Limit Value {BasedOnField A4}
  ,                                       !- Upper Limit Value {BasedOnField A4}
  Continuous,                             !- Numeric Type
  ActivityLevel;                          !- Unit Type

OS:Schedule:Compact,
  {c768d87f-5b68-4835-b865-6e2f09edb33c}, !- Handle
  CLOTHING_SCH,                           !- Name
  {7cd8eab7-65cd-49c5-a3fd-51842b86207e}, !- Schedule Type Limits Name
  Through: 04/30,                         !- Field 1
  For: AllDays,                           !- Field 2
  Until: 24:00,                           !- Field 3
  1.0,                                    !- Field 4
  Through: 09/30,                         !- Field 5
  For: AllDays,                           !- Field 6
  Until: 24:00,                           !- Field 7
  0.5,                                    !- Field 8
  Through: 12/31,                         !- Field 9
  For: AllDays,                           !- Field 10
  Until: 24:00,                           !- Field 11
  1.0;                                    !- Field 12

OS:ScheduleTypeLimits,
  {cb8e2ac6-3921-4999-8602-e64dcf4bc0ec}, !- Handle
  {a625d91a-03c6-4467-8a1f-b0e0cf3de41a}; !- Name

OS:ScheduleTypeLimits,
  {7cd8eab7-65cd-49c5-a3fd-51842b86207e}, !- Handle
  ClothingInsulation,                     !- Name
  0,                                      !- Lower Limit Value {BasedOnField A4}
  ,                                       !- Upper Limit Value {BasedOnField A4}
  Continuous,                             !- Numeric Type
  ClothingInsulation;                     !- Unit Type

OS:Schedule:Compact,
  {9b0e4d95-3180-454c-9747-9f1145569b19}, !- Handle
  AIR_VELO_SCH,                           !- Name
  {badb75ad-58dd-4993-90cb-e225b826b943}, !- Schedule Type Limits Name
  Through: 12/31,                         !- Field 1
  For: AllDays,                           !- Field 2
  Until: 24:00,                           !- Field 3
  0.2;                                    !- Field 4

OS:ScheduleTypeLimits,
  {b270a9b6-b475-43b8-9022-f7f8875e6bce}, !- Handle
  {11e45e7a-0c0c-484c-ba00-eae0f102417e}; !- Name

OS:ScheduleTypeLimits,
  {badb75ad-58dd-4993-90cb-e225b826b943}, !- Handle
  Velocity,                               !- Name
  0,                                      !- Lower Limit Value {BasedOnField A4}
  ,                                       !- Upper Limit Value {BasedOnField A4}
  Continuous,                             !- Numeric Type
  Velocity;                               !- Unit Type

OS:ThermostatSetpoint:DualSetpoint,
  {de1b55eb-6984-468c-bece-9f2ebdb70704}, !- Handle
  {497ec139-1e15-4fef-9f8a-9a4a25af0bf0}, !- Name
  {e6f604e5-ec22-4217-baf3-9b1256d82d86}, !- Heating Setpoint Temperature Schedule Name
  {e0486981-237b-4c0a-ad61-509487cc6db1}; !- Cooling Setpoint Temperature Schedule Name

OS:Construction,
  {7e05cf23-fa5c-4643-8dd0-19dc6f6a5649}, !- Handle
  IEAD Non-res Roof,                      !- Name
  ,                                       !- Surface Rendering Name
  {f93b65da-4479-4631-9cc7-fa8d737d355c}, !- Layer 1
  {788aaec7-acef-455e-b8c2-612987783241}, !- Layer 2
  {1c5ab5dd-f6c7-458f-b13e-6d7b61642e5d}; !- Layer 3

OS:Material,
  {f93b65da-4479-4631-9cc7-fa8d737d355c}, !- Handle
  Roof Membrane,                          !- Name
  VeryRough,                              !- Roughness
  0.0095,                                 !- Thickness {m}
  0.16,                                   !- Conductivity {W/m-K}
  1121.29,                                !- Density {kg/m3}
  1460,                                   !- Specific Heat {J/kg-K}
  0.9,                                    !- Thermal Absorptance
  0.7,                                    !- Solar Absorptance
  0.7;                                    !- Visible Absorptance

OS:Material,
  {788aaec7-acef-455e-b8c2-612987783241}, !- Handle
  IEAD NonRes Roof Insulation,            !- Name
  MediumRough,                            !- Roughness
  0.127338688569477,                      !- Thickness {m}
  0.049,                                  !- Conductivity {W/m-K}
  265,                                    !- Density {kg/m3}
  836.8,                                  !- Specific Heat {J/kg-K}
  0.9,                                    !- Thermal Absorptance
  0.7,                                    !- Solar Absorptance
  0.7;                                    !- Visible Absorptance

OS:Material,
  {1c5ab5dd-f6c7-458f-b13e-6d7b61642e5d}, !- Handle
  Metal Decking,                          !- Name
  MediumSmooth,                           !- Roughness
  0.0015,                                 !- Thickness {m}
  45.006,                                 !- Conductivity {W/m-K}
  7680,                                   !- Density {kg/m3}
  418.4,                                  !- Specific Heat {J/kg-K}
  0.9,                                    !- Thermal Absorptance
  0.7,                                    !- Solar Absorptance
  0.3;                                    !- Visible Absorptance

OS:SubSurface,
  {c9c62f16-30a4-42b2-b4fd-743d56b58b6a}, !- Handle
  SMstore6_Wall_3_Door,                   !- Name
  Door,                                   !- Sub Surface Type
  {e9e956ca-d1d8-4260-95b5-cfe802b39346}, !- Construction Name
  {1c99fb35-6249-46c0-9dd8-54ae942bb88b}, !- Surface Name
  ,                                       !- Outside Boundary Condition Object
  ,                                       !- View Factor to Ground
  ,                                       !- Shading Control Name
  ,                                       !- Frame and Divider Name
  1,                                      !- Multiplier
  ,                                       !- Number of Vertices
  73.3, 22.86, 2.13,                      !- X,Y,Z Vertex 1 {m}
  73.3, 22.86, 0,                         !- X,Y,Z Vertex 2 {m}
  71.48, 22.86, 0,                        !- X,Y,Z Vertex 3 {m}
  71.48, 22.86, 2.13;                     !- X,Y,Z Vertex 4 {m}

OS:Construction,
  {e9e956ca-d1d8-4260-95b5-cfe802b39346}, !- Handle
  Swinging Door Non-res,                  !- Name
  ,                                       !- Surface Rendering Name
  {a8ea4d10-b77a-4afb-b4c1-4b4cff397175}; !- Layer 1

OS:Material:NoMass,
  {a8ea4d10-b77a-4afb-b4c1-4b4cff397175}, !- Handle
  Opaque Door panel NonRes,               !- Name
  MediumRough,                            !- Roughness
  0.101897046243647,                      !- Thermal Resistance {m2-K/W}
  0.9,                                    !- Thermal Absorptance
  0.7,                                    !- Solar Absorptance
  0.7;                                    !- Visible Absorptance

OS:Surface,
  {1c99fb35-6249-46c0-9dd8-54ae942bb88b}, !- Handle
  SMstore6_Wall_3,                        !- Name
  Wall,                                   !- Surface Type
  {66ef4734-50d5-4f8e-8824-1a7b5164f774}, !- Construction Name
  {6f3c2232-a119-4393-94e8-4701d18e9c0a}, !- Space Name
  Outdoors,                               !- Outside Boundary Condition
  ,                                       !- Outside Boundary Condition Object
  SunExposed,                             !- Sun Exposure
  WindExposed,                            !- Wind Exposure
  ,                                       !- View Factor to Ground
  ,                                       !- Number of Vertices
  76.2, 22.86, 5.18,                      !- X,Y,Z Vertex 1 {m}
  76.2, 22.86, 0,                         !- X,Y,Z Vertex 2 {m}
  68.58, 22.86, 0,                        !- X,Y,Z Vertex 3 {m}
  68.58, 22.86, 5.18;                     !- X,Y,Z Vertex 4 {m}

OS:Construction,
  {66ef4734-50d5-4f8e-8824-1a7b5164f774}, !- Handle
  Steel Frame Non-res Ext Wall,           !- Name
  ,                                       !- Surface Rendering Name
  {508c0508-d110-432a-8227-5d5eb7940ef9}, !- Layer 1
  {686f5c49-dc5a-4a3a-be1b-fdc4206ab87d}, !- Layer 2
  {26c58592-6c47-4c51-9e9f-7a6582383ccf}; !- Layer 3

OS:Material,
  {508c0508-d110-432a-8227-5d5eb7940ef9}, !- Handle
  Wood Siding,                            !- Name
  MediumSmooth,                           !- Roughness
  0.01,                                   !- Thickness {m}
  0.11,                                   !- Conductivity {W/m-K}
  544.62,                                 !- Density {kg/m3}
  1210,                                   !- Specific Heat {J/kg-K}
  0.9,                                    !- Thermal Absorptance
  0.78,                                   !- Solar Absorptance
  0.78;                                   !- Visible Absorptance

OS:Material,
  {686f5c49-dc5a-4a3a-be1b-fdc4206ab87d}, !- Handle
  Steel Frame NonRes Wall Insulation,     !- Name
  MediumRough,                            !- Roughness
  0.0870564552646045,                     !- Thickness {m}
  0.049,                                  !- Conductivity {W/m-K}
  265,                                    !- Density {kg/m3}
  836.8,                                  !- Specific Heat {J/kg-K}
  0.9,                                    !- Thermal Absorptance
  0.7,                                    !- Solar Absorptance
  0.7;                                    !- Visible Absorptance

OS:Material,
  {26c58592-6c47-4c51-9e9f-7a6582383ccf}, !- Handle
  1/2IN Gypsum,                           !- Name
  Smooth,                                 !- Roughness
  0.0127,                                 !- Thickness {m}
  0.16,                                   !- Conductivity {W/m-K}
  784.9,                                  !- Density {kg/m3}
  830,                                    !- Specific Heat {J/kg-K}
  0.9,                                    !- Thermal Absorptance
  0.92,                                   !- Solar Absorptance
  0.92;                                   !- Visible Absorptance

OS:ThermalZone,
  {c4b67f1f-4a6f-4123-b158-eca4752d2e87}, !- Handle
  SMstore6 Thermal Zone,                  !- Name
  1,                                      !- Multiplier
  ,                                       !- Ceiling Height {m}
  ,                                       !- Volume {m3}
  ,                                       !- Floor Area {m2}
  ,                                       !- Zone Inside Convection Algorithm
  ,                                       !- Zone Outside Convection Algorithm
  ,                                       !- Zone Conditioning Equipment List Name
  {88650f20-8755-4ff9-8548-732e4d27fcb2}, !- Zone Air Inlet Port List
  {41b3504f-6f45-40f3-a31c-ebb67cf17773}, !- Zone Air Exhaust Port List
  {dae7d35f-db0f-4708-a4f9-5f04d5aec32f}, !- Zone Air Node Name
  ,                                       !- Zone Return Air Node Name
  ,                                       !- Primary Daylighting Control Name
  ,                                       !- Fraction of Zone Controlled by Primary Daylighting Control
  ,                                       !- Secondary Daylighting Control Name
  ,                                       !- Fraction of Zone Controlled by Secondary Daylighting Control
  ,                                       !- Illuminance Map Name
  ,                                       !- Group Rendering Name
  {de1b55eb-6984-468c-bece-9f2ebdb70704}, !- Thermostat Name
  No;                                     !- Use Ideal Air Loads

OS:Node,
  {4a845de9-56e5-449c-88ee-b1652f303f56}, !- Handle
  {9f9642eb-2d28-49ba-8ae2-4cddf3500bb5}, !- Name
  {dae7d35f-db0f-4708-a4f9-5f04d5aec32f}, !- Inlet Port
  ;                                       !- Outlet Port

OS:Connection,
  {dae7d35f-db0f-4708-a4f9-5f04d5aec32f}, !- Handle
  {e4ad5781-87fc-46f3-afc5-f7b3915d7125}, !- Name
  {c4b67f1f-4a6f-4123-b158-eca4752d2e87}, !- Source Object
  11,                                     !- Outlet Port
  {4a845de9-56e5-449c-88ee-b1652f303f56}, !- Target Object
  2;                                      !- Inlet Port

OS:PortList,
  {88650f20-8755-4ff9-8548-732e4d27fcb2}, !- Handle
  {db1668ac-17d8-406b-a58f-dd6130a37b5f}, !- Name
  {c4b67f1f-4a6f-4123-b158-eca4752d2e87}; !- HVAC Component

OS:PortList,
  {41b3504f-6f45-40f3-a31c-ebb67cf17773}, !- Handle
  {3034c2c2-25e4-4f17-8b11-e1d94c680a95}, !- Name
  {c4b67f1f-4a6f-4123-b158-eca4752d2e87}; !- HVAC Component

OS:Sizing:Zone,
  {3e68f3c2-6867-46c1-afa9-b68c718ca61c}, !- Handle
  {c4b67f1f-4a6f-4123-b158-eca4752d2e87}, !- Zone or ZoneList Name
  14,                                     !- Zone Cooling Design Supply Air Temperature {C}
  40,                                     !- Zone Heating Design Supply Air Temperature {C}
  0.0085,                                 !- Zone Cooling Design Supply Air Humidity Ratio {kg-H2O/kg-air}