
OS:Version,
  {b78111ab-c013-4ac0-b161-42e2940dcb4c}, !- Handle
  1.3.0;                                  !- Version Identifier

OS:Site,
  {6e55b886-0cf4-48fa-87be-eb8ef3cbe9c4}, !- Handle
  USA IL-CHICAGO-OHARE,                   !- Name
  41.77,                                  !- Latitude {deg}
  -87.75,                                 !- Longitude {deg}
  -6,                                     !- Time Zone {hr}
  190,                                    !- Elevation {m}
  City;                                   !- Terrain

OS:SimulationControl,
  {93247f5c-67c3-4a92-82c2-307b70458dcc}, !- Handle
  Yes,                                    !- Do Zone Sizing Calculation
  Yes,                                    !- Do System Sizing Calculation
  Yes,                                    !- Do Plant Sizing Calculation
  No,                                     !- Run Simulation for Sizing Periods
  Yes,                                    !- Run Simulation for Weather File Run Periods
  0.04,                                   !- Loads Convergence Tolerance Value
  0.2,                                    !- Temperature Convergence Tolerance Value {deltaC}
  FullInteriorAndExterior,                !- Solar Distribution
  25,                                     !- Maximum Number of Warmup Days
  6;                                      !- Minimum Number of Warmup Days

OS:Surface,
  {7c14ae2c-6bcc-4daa-bb78-99b3d94c3816}, !- Handle
  Bakery_Wall_South,                      !- Name
  Wall,                                   !- Surface Type
  {b8b5380b-42dd-44ff-aa98-7f8cad94fcd4}, !- Construction Name
  {6714982c-ce99-4e05-b8e4-47ef2da93f54}, !- Space Name
  Outdoors,                               !- Outside Boundary Condition
  ,                                       !- Outside Boundary Condition Object
  SunExposed,                             !- Sun Exposure
  WindExposed,                            !- Wind Exposure
  ,                                       !- View Factor to Ground
  ,                                       !- Number of Vertices
  26.8875, -30.2429, 6.096,               !- X,Y,Z Vertex 1 {m}
  26.8875, -30.2429, 0,                   !- X,Y,Z Vertex 2 {m}
  36.7863, -30.2429, 0,                   !- X,Y,Z Vertex 3 {m}
  36.7863, -30.2429, 6.096;               !- X,Y,Z Vertex 4 {m}

OS:Construction,
  {b8b5380b-42dd-44ff-aa98-7f8cad94fcd4}, !- Handle
  Mass Non-res Ext Wall,                  !- Name
  ,                                       !- Surface Rendering Name
  {5d961f6a-644b-47ee-9cad-cfb0340656cd}, !- Layer 1
  {96dc4f24-1fea-4568-b879-a7609ebc6ffb}, !- Layer 2
  {08a32b7a-1020-4e88-85e3-c9905e67b205}, !- Layer 3
  {920a2e0f-1e03-45f8-bd2a-b0315537fd76}; !- Layer 4

OS:Material,
  {5d961f6a-644b-47ee-9cad-cfb0340656cd}, !- Handle
  1IN Stucco,                             !- Name
  Smooth,                                 !- Roughness
  0.0253,                                 !- Thickness {m}
  0.6918,                                 !- Conductivity {W/m-K}
  1858,                                   !- Density {kg/m3}
  837,                                    !- Specific Heat {J/kg-K}
  0.9,                                    !- Thermal Absorptance
  0.92,                                   !- Solar Absorptance
  0.92;                                   !- Visible Absorptance

OS:Material,
  {96dc4f24-1fea-4568-b879-a7609ebc6ffb}, !- Handle
  8IN CONCRETE HW,                        !- Name
  Rough,                                  !- Roughness
  0.2032,                                 !- Thickness {m}
  1.311,                                  !- Conductivity {W/m-K}
  2240,                                   !- Density {kg/m3}
  836.8,                                  !- Specific Heat {J/kg-K}
  0.9,                                    !- Thermal Absorptance
  0.7,                                    !- Solar Absorptance
  0.7;                                    !- Visible Absorptance

OS:Material,
  {08a32b7a-1020-4e88-85e3-c9905e67b205}, !- Handle
  Mass NonRes Wall Insulation,            !- Name
  MediumRough,                            !- Roughness
  0.0495494599433393,                     !- Thickness {m}
  0.049,                                  !- Conductivity {W/m-K}
  265,                                    !- Density {kg/m3}
  836.8,                                  !- Specific Heat {J/kg-K}
  0.9,                                    !- Thermal Absorptance
  0.7,                                    !- Solar Absorptance
  0.7;                                    !- Visible Absorptance

OS:Material,
  {920a2e0f-1e03-45f8-bd2a-b0315537fd76}, !- Handle
  1/2IN Gypsum,                           !- Name
  Smooth,                                 !- Roughness
  0.0127,                                 !- Thickness {m}
  0.16,                                   !- Conductivity {W/m-K}
  784.9,                                  !- Density {kg/m3}
  830,                                    !- Specific Heat {J/kg-K}
  0.9,                                    !- Thermal Absorptance
  0.92,                                   !- Solar Absorptance
  0.92;                                   !- Visible Absorptance

OS:ThermalZone,
  {08290e97-ade9-4a2c-a14d-d603f8569c31}, !- Handle
  Bakery Thermal Zone,                    !- Name
  1,                                      !- Multiplier
  ,                                       !- Ceiling Height {m}
  ,                                       !- Volume {m3}
  ,                                       !- Floor Area {m2}
  ,                                       !- Zone Inside Convection Algorithm
  ,                                       !- Zone Outside Convection Algorithm
  ,                                       !- Zone Conditioning Equipment List Name
  {115ddcec-e503-470f-82fe-9304ac319e70}, !- Zone Air Inlet Port List
  {495d9fb6-b490-4ba8-93bb-7686d9d0c031}, !- Zone Air Exhaust Port List
  {84bde2dc-4b5d-457e-9a3f-07404c0a1ad0}, !- Zone Air Node Name
  ,                                       !- Zone Return Air Node Name
  ,                                       !- Primary Daylighting Control Name
  ,                                       !- Fraction of Zone Controlled by Primary Daylighting Control
  ,                                       !- Secondary Daylighting Control Name
  ,                                       !- Fraction of Zone Controlled by Secondary Daylighting Control
  ,                                       !- Illuminance Map Name
  ,                                       !- Group Rendering Name
  {e21eac8e-c82e-455b-9766-97c74f014cd3}, !- Thermostat Name
  No;                                     !- Use Ideal Air Loads

OS:Node,
  {baa3eaba-ee1f-428d-a9a7-355b1a18c6d5}, !- Handle
  {5abf7bf2-159e-4916-8354-16950c0ef6f9}, !- Name
  {84bde2dc-4b5d-457e-9a3f-07404c0a1ad0}, !- Inlet Port
  ;                                       !- Outlet Port

OS:Connection,
  {84bde2dc-4b5d-457e-9a3f-07404c0a1ad0}, !- Handle
  {fe0f5bb5-0235-42d0-9139-8d9723414275}, !- Name
  {08290e97-ade9-4a2c-a14d-d603f8569c31}, !- Source Object
  11,                                     !- Outlet Port
  {baa3eaba-ee1f-428d-a9a7-355b1a18c6d5}, !- Target Object
  2;                                      !- Inlet Port

OS:PortList,
  {115ddcec-e503-470f-82fe-9304ac319e70}, !- Handle
  {6468a1b1-c0d6-4472-8e2e-c8dd9e54c879}, !- Name
  {08290e97-ade9-4a2c-a14d-d603f8569c31}; !- HVAC Component

OS:PortList,
  {495d9fb6-b490-4ba8-93bb-7686d9d0c031}, !- Handle
  {0ed9cff5-82fb-4128-b517-bb86730d1a22}, !- Name
  {08290e97-ade9-4a2c-a14d-d603f8569c31}; !- HVAC Component

OS:Sizing:Zone,
  {e6a10e26-cc66-45ab-b36e-af7c16397725}, !- Handle
  {08290e97-ade9-4a2c-a14d-d603f8569c31}, !- Zone or ZoneList Name
  14,                                     !- Zone Cooling Design Supply Air Temperature {C}
  40,                                     !- Zone Heating Design Supply Air Temperature {C}
  0.0085,                                 !- Zone Cooling Design Supply Air Humidity Ratio {kg-H2O/kg-air}
  0.008,                                  !- Zone Heating Design Supply Air Humidity Ratio {kg-H2O/kg-air}
  ,                                       !- Zone Heating Sizing Factor
  ,                                       !- Zone Cooling Sizing Factor
  DesignDay,                              !- Cooling Design Air Flow Method
  ,                                       !- Cooling Design Air Flow Rate {m3/s}
  ,                                       !- Cooling Minimum Air Flow per Zone Floor Area {m3/s-m2}
  ,                                       !- Cooling Minimum Air Flow {m3/s}
  ,                                       !- Cooling Minimum Air Flow Fraction
  DesignDay,                              !- Heating Design Air Flow Method
  ,                                       !- Heating Design Air Flow Rate {m3/s}
  ,                                       !- Heating Maximum Air Flow per Zone Floor Area {m3/s-m2}
  ,                                       !- Heating Maximum Air Flow {m3/s}
  ,                                       !- Heating Maximum Air Flow Fraction
  ,                                       !- Design Zone Air Distribution Effectiveness in Cooling Mode
  ;                                       !- Design Zone Air Distribution Effectiveness in Heating Mode

OS:ZoneHVAC:EquipmentList,
  {88f1cf69-df37-445c-85d6-8187cd5f49a8}, !- Handle
  {0c23deac-e77d-4acc-8ad8-e58a0c482967}, !- Name
  {08290e97-ade9-4a2c-a14d-d603f8569c31}; !- Thermal Zone

OS:Space,
  {6714982c-ce99-4e05-b8e4-47ef2da93f54}, !- Handle
  Bakery,                                 !- Name
  ,                                       !- Space Type Name
  ,                                       !- Default Construction Set Name
  ,                                       !- Default Schedule Set Name
  0,                                      !- Direction of Relative North {deg}
  0,                                      !- X Origin {m}
  0,                                      !- Y Origin {m}
  0,                                      !- Z Origin {m}
  ,                                       !- Building Story Name
  {08290e97-ade9-4a2c-a14d-d603f8569c31}, !- Thermal Zone Name
  Yes;                                    !- Part of Total Floor Area

OS:ThermostatSetpoint:DualSetpoint,
  {e21eac8e-c82e-455b-9766-97c74f014cd3}, !- Handle
  {77bdebc7-bdc4-4093-bef2-1c3e9dea8c68}, !- Name
  {5ec321b0-137e-4d91-8094-f272a8a2c1e5}, !- Heating Setpoint Temperature Schedule Name
  {385d9008-fd3b-4eff-a249-873cf2345910}; !- Cooling Setpoint Temperature Schedule Name

OS:Schedule:Compact,
  {5ec321b0-137e-4d91-8094-f272a8a2c1e5}, !- Handle
  HTGSETP_SCH,                            !- Name
  {856d9ce7-6713-4056-95ce-bc121c4e7979}, !- Schedule Type Limits Name
  Through: 12/31,                         !- Field 1
  For SummerDesignDay,                    !- Field 2
  Until: 24:00,                           !- Field 3
  15.6,                                   !- Field 4
  For: AllOtherDays,                      !- Field 5
  Until:  6:00,                           !- Field 6
  15.6,                                   !- Field 7
  Until: 22:00,                           !- Field 8
  21.,                                    !- Field 9
  Until: 24:00,                           !- Field 10
  15.6;                                   !- Field 11

OS:ScheduleTypeLimits,
  {856d9ce7-6713-4056-95ce-bc121c4e7979}, !- Handle
  Temperature,                            !- Name
  -60,                                    !- Lower Limit Value {BasedOnField A4}
  200,                                    !- Upper Limit Value {BasedOnField A4}
  CONTINUOUS,                             !- Numeric Type
  Temperature;                            !- Unit Type

OS:Schedule:Compact,
  {385d9008-fd3b-4eff-a249-873cf2345910}, !- Handle
  CLGSETP_SCH,                            !- Name
  {856d9ce7-6713-4056-95ce-bc121c4e7979}, !- Schedule Type Limits Name
  Through: 12/31,                         !- Field 1
  For WinterDesignDay,                    !- Field 2
  Until: 24:00,                           !- Field 3
  30.0,                                   !- Field 4
  For: AllOtherDays,                      !- Field 5
  Until: 6:00,                            !- Field 6
  30.0,                                   !- Field 7
  Until: 22:00,                           !- Field 8
  24.0,                                   !- Field 9
  Until: 24:00,                           !- Field 10
  30.0;                                   !- Field 11

OS:ThermostatSetpoint:DualSetpoint,
  {9a0a1b21-326d-4b90-9774-c548b6428fd8}, !- Handle
  {5030a617-d727-40be-afca-2e29ed845523}, !- Name
  {5ec321b0-137e-4d91-8094-f272a8a2c1e5}, !- Heating Setpoint Temperature Schedule Name
  {385d9008-fd3b-4eff-a249-873cf2345910}; !- Cooling Setpoint Temperature Schedule Name

OS:Surface,
  {db8ee8f2-6bd1-40cf-8ec3-5f2b828ca91b}, !- Handle
  Bakery_Wall__2,                         !- Name
  Wall,                                   !- Surface Type
  {b8b5380b-42dd-44ff-aa98-7f8cad94fcd4}, !- Construction Name
  {6714982c-ce99-4e05-b8e4-47ef2da93f54}, !- Space Name
  Outdoors,                               !- Outside Boundary Condition
  ,                                       !- Outside Boundary Condition Object
  SunExposed,                             !- Sun Exposure
  WindExposed,                            !- Wind Exposure
  ,                                       !- View Factor to Ground
  ,                                       !- Number of Vertices
  36.7863, -30.2429, 6.096,               !- X,Y,Z Vertex 1 {m}
  36.7863, -30.2429, 0,                   !- X,Y,Z Vertex 2 {m}
  36.7863, -9.1251, 0,                    !- X,Y,Z Vertex 3 {m}
  36.7863, -9.1251, 6.096;                !- X,Y,Z Vertex 4 {m}

OS:Curve:Biquadratic,
  {c8a5ded9-4c14-41d0-918e-d958a9cf3190}, !- Handle
  Cool-EIR-fT,                            !- Name
  0.28687133,                             !- Coefficient1 Constant
  0.023902164,                            !- Coefficient2 x
  -0.000810648,                           !- Coefficient3 x**2
  0.013458546,                            !- Coefficient4 y
  0.0003389364,                           !- Coefficient5 y**2
  -0.0004870044,                          !- Coefficient6 x*y
  -100,                                   !- Minimum Value of x {BasedOnField A2}
  100,                                    !- Maximum Value of x {BasedOnField A2}
  -100,                                   !- Minimum Value of y {BasedOnField A3}
  100;                                    !- Maximum Value of y {BasedOnField A3}

OS:Curve:Cubic,
  {114a5d1c-62f0-4710-8bb4-2d50fe0e3b78}, !- Handle
  ConstantCubic,                          !- Name
  1,                                      !- Coefficient1 Constant
  0,                                      !- Coefficient2 x
  0,                                      !- Coefficient3 x**2
  0,                                      !- Coefficient4 x**3
  -100,                                   !- Minimum Value of x {BasedOnField A2}
  100;                                    !- Maximum Value of x {BasedOnField A2}

OS:People:Definition,
  {14073efa-6ad7-4076-915b-d49cd6a780dd}, !- Handle
  Deli People Definition,                 !- Name
  Area/Person,                            !- Number of People Calculation Method
  ,                                       !- Number of People {people}
  ,                                       !- People per Space Floor Area {person/m2}
  11.61,                                  !- Space Floor Area per Person {m2/person}
  0.3,                                    !- Fraction Radiant
  ,                                       !- Sensible Heat Fraction
  ,                                       !- Carbon Dioxide Generation Rate {m3/s-W}
  No,                                     !- Enable ASHRAE 55 Comfort Warnings
  ZoneAveraged,                           !- Mean Radiant Temperature Calculation Type
  FANGER;                                 !- Thermal Comfort Model Type 1

OS:People,
  {e7314d03-f3dd-421f-9059-ba0f00f7acb3}, !- Handle
  Deli People,                            !- Name
  {14073efa-6ad7-4076-915b-d49cd6a780dd}, !- People Definition Name
  {07adfee6-2a14-41a6-b719-3bd87e18ef5b}, !- Space or SpaceType Name
  {8650d2de-8ee0-477c-845c-f40faf425dc2}, !- Number of People Schedule Name
  {7f2e9131-c411-4466-a813-d457977d133b}, !- Activity Level Schedule Name
  ,                                       !- Surface Name/Angle Factor List Name
  {19742e27-8c88-4475-8284-4fd090480c1f}, !- Work Efficiency Schedule Name
  {c98f9ca3-61c5-4a29-ace7-0cdde7724272}, !- Clothing Insulation Schedule Name
  {4c01e6a7-3f80-41be-be6d-674d4f91a6dd}; !- Air Velocity Schedule Name

OS:ThermalZone,
  {d14b0081-e944-46f5-823f-be2e07ce8a43}, !- Handle
  Deli Thermal Zone,                      !- Name
  1,                                      !- Multiplier
  ,                                       !- Ceiling Height {m}
  ,                                       !- Volume {m3}
  ,                                       !- Floor Area {m2}
  ,                                       !- Zone Inside Convection Algorithm
  ,                                       !- Zone Outside Convection Algorithm
  ,                                       !- Zone Conditioning Equipment List Name
  {b1c69044-b91d-44ef-bbeb-b3d78ec64d3c}, !- Zone Air Inlet Port List
  {b3afbcbc-fb2c-473e-8cb5-098e6c5fbe1b}, !- Zone Air Exhaust Port List
  {b59746b7-e9be-4da4-a7b1-e9ea4c81ecd4}, !- Zone Air Node Name
  ,                                       !- Zone Return Air Node Name
  ,                                       !- Primary Daylighting Control Name
  ,                                       !- Fraction of Zone Controlled by Primary Daylighting Control
  ,                                       !- Secondary Daylighting Control Name
  ,                                       !- Fraction of Zone Controlled by Secondary Daylighting Control
  ,                                       !- Illuminance Map Name
  ,                                       !- Group Rendering Name
  {a4175ed2-6e0a-49d0-9d71-bbf9f1371ee4}, !- Thermostat Name
  No;                                     !- Use Ideal Air Loads

OS:Node,
  {0b863693-3fea-4549-b97d-272498868451}, !- Handle
  {0e878cbe-6647-4966-9fbc-501529bf4d9a}, !- Name
  {b59746b7-e9be-4da4-a7b1-e9ea4c81ecd4}, !- Inlet Port
  ;                                       !- Outlet Port

OS:Connection,
  {b59746b7-e9be-4da4-a7b1-e9ea4c81ecd4}, !- Handle
  {6c08af17-b0a6-4148-839c-89d9ec4bd45f}, !- Name
  {d14b0081-e944-46f5-823f-be2e07ce8a43}, !- Source Object
  11,                                     !- Outlet Port
  {0b863693-3fea-4549-b97d-272498868451}, !- Target Object
  2;                                      !- Inlet Port

OS:PortList,
  {b1c69044-b91d-44ef-bbeb-b3d78ec64d3c}, !- Handle
  {dd8aa15a-da4a-4041-9b3a-be9e7dbd9826}, !- Name
  {d14b0081-e944-46f5-823f-be2e07ce8a43}; !- HVAC Component

OS:PortList,
  {b3afbcbc-fb2c-473e-8cb5-098e6c5fbe1b}, !- Handle
  {ce1f4ae1-7cab-458e-bcb1-c97c2b5371b5}, !- Name
  {d14b0081-e944-46f5-823f-be2e07ce8a43}; !- HVAC Component

OS:Sizing:Zone,
  {44351a10-d75a-4e34-9877-f80112b6e2b5}, !- Handle
  {d14b0081-e944-46f5-823f-be2e07ce8a43}, !- Zone or ZoneList Name
  14,                                     !- Zone Cooling Design Supply Air Temperature {C}
  40,                                     !- Zone Heating Design Supply Air Temperature {C}
  0.0085,                                 !- Zone Cooling Design Supply Air Humidity Ratio {kg-H2O/kg-air}
  0.008,                                  !- Zone Heating Design Supply Air Humidity Ratio {kg-H2O/kg-air}
  ,                                       !- Zone Heating Sizing Factor
  ,                                       !- Zone Cooling Sizing Factor
  DesignDay,                              !- Cooling Design Air Flow Method
  ,                                       !- Cooling Design Air Flow Rate {m3/s}
  ,                                       !- Cooling Minimum Air Flow per Zone Floor Area {m3/s-m2}
  ,                                       !- Cooling Minimum Air Flow {m3/s}
  ,                                       !- Cooling Minimum Air Flow Fraction
  DesignDay,                              !- Heating Design Air Flow Method
  ,                                       !- Heating Design Air Flow Rate {m3/s}
  ,                                       !- Heating Maximum Air Flow per Zone Floor Area {m3/s-m2}
  ,                                       !- Heating Maximum Air Flow {m3/s}
  ,                                       !- Heating Maximum Air Flow Fraction
  ,                                       !- Design Zone Air Distribution Effectiveness in Cooling Mode
  ;                                       !- Design Zone Air Distribution Effectiveness in Heating Mode

OS:ZoneHVAC:EquipmentList,
  {aa6778bb-e273-401d-ae4e-e0a1ec19f816}, !- Handle
  {5371839e-36cc-4aff-a014-a29c93f8ad89}, !- Name
  {d14b0081-e944-46f5-823f-be2e07ce8a43}; !- Thermal Zone

OS:Space,
  {07adfee6-2a14-41a6-b719-3bd87e18ef5b}, !- Handle
  Deli,                                   !- Name
  ,                                       !- Space Type Name
  ,                                       !- Default Construction Set Name
  ,                                       !- Default Schedule Set Name
  0,                                      !- Direction of Relative North {deg}
  0,                                      !- X Origin {m}
  0,                                      !- Y Origin {m}
  0,                                      !- Z Origin {m}
  ,                                       !- Building Story Name
  {d14b0081-e944-46f5-823f-be2e07ce8a43}, !- Thermal Zone Name
  Yes;                                    !- Part of Total Floor Area

OS:ThermostatSetpoint:DualSetpoint,
  {a4175ed2-6e0a-49d0-9d71-bbf9f1371ee4}, !- Handle
  {57734c52-181e-4957-93a3-127fb969e9a2}, !- Name
  {5ec321b0-137e-4d91-8094-f272a8a2c1e5}, !- Heating Setpoint Temperature Schedule Name
  {385d9008-fd3b-4eff-a249-873cf2345910}; !- Cooling Setpoint Temperature Schedule Name

OS:Schedule:Compact,
  {8650d2de-8ee0-477c-845c-f40faf425dc2}, !- Handle
  BLDG_OCC_SCH,                           !- Name
  {b97e0496-6d32-4c85-9fca-113a0305bc2b}, !- Schedule Type Limits Name
  Through: 12/31,                         !- Field 1
  For: Weekdays,                          !- Field 2
  Until: 06:00,                           !- Field 3
  0.0,                                    !- Field 4
  Until: 08:00,                           !- Field 5
  0.1,                                    !- Field 6
  Until: 09:00,                           !- Field 7
  0.2,                                    !- Field 8
  Until: 11:00,                           !- Field 9
  0.5,                                    !- Field 10
  Until: 15:00,                           !- Field 11
  0.7,                                    !- Field 12
  Until: 16:00,                           !- Field 13
  0.8,                                    !- Field 14
  Until: 17:00,                           !- Field 15
  0.7,                                    !- Field 16
  Until: 19:00,                           !- Field 17
  0.5,                                    !- Field 18
  Until: 22:00,                           !- Field 19
  0.3,                                    !- Field 20
  Until: 24:00,                           !- Field 21
  0.0,                                    !- Field 22
  For: SummerDesignDay,                   !- Field 23
  Until: 24:00,                           !- Field 24
  1.0,                                    !- Field 25
  For: Saturday,                          !- Field 26
  Until: 06:00,                           !- Field 27
  0.0,                                    !- Field 28
  Until: 08:00,                           !- Field 29
  0.1,                                    !- Field 30
  Until: 09:00,                           !- Field 31
  0.2,                                    !- Field 32
  Until: 10:00,                           !- Field 33
  0.5,                                    !- Field 34
  Until: 11:00,                           !- Field 35
  0.6,                                    !- Field 36
  Until: 17:00,                           !- Field 37
  0.8,                                    !- Field 38
  Until: 18:00,                           !- Field 39
  0.6,                                    !- Field 40
  Until: 21:00,                           !- Field 41
  0.2,                                    !- Field 42
  Until: 22:00,                           !- Field 43
  0.1,                                    !- Field 44
  Until: 24:00,                           !- Field 45
  0.0,                                    !- Field 46
  For: WinterDesignDay,                   !- Field 47
  Until: 24:00,                           !- Field 48
  0.0,                                    !- Field 49
  For: Sunday Holidays AllOtherDays,      !- Field 50
  Until: 06:00,                           !- Field 51
  0.0,                                    !- Field 52
  Until: 10:00,                           !- Field 53
  0.1,                                    !- Field 54
  Until: 12:00,                           !- Field 55
  0.2,                                    !- Field 56
  Until: 17:00,                           !- Field 57
  0.4,                                    !- Field 58
  Until: 18:00,                           !- Field 59
  0.2,                                    !- Field 60
  Until: 22:00,                           !- Field 61
  0.1,                                    !- Field 62
  Until: 24:00,                           !- Field 63
  0.0;                                    !- Field 64

OS:ScheduleTypeLimits,
  {b97e0496-6d32-4c85-9fca-113a0305bc2b}, !- Handle
  Fraction,                               !- Name
  0,                                      !- Lower Limit Value {BasedOnField A4}
  1,                                      !- Upper Limit Value {BasedOnField A4}
  CONTINUOUS;                             !- Numeric Type

OS:Schedule:Compact,
  {7f2e9131-c411-4466-a813-d457977d133b}, !- Handle
  ACTIVITY_SCH,                           !- Name
  {0397d27b-e60d-4c5c-84ca-dcee193ba5da}, !- Schedule Type Limits Name
  Through: 12/31,                         !- Field 1
  For: AllDays,                           !- Field 2
  Until: 24:00,                           !- Field 3
  120.;                                   !- Field 4

OS:ScheduleTypeLimits,
  {f31bbf01-ece2-48f4-9d14-b2ae49ff42b1}, !- Handle
  {20730df5-95fb-453f-b564-a4a38dfd4a74}; !- Name

OS:ScheduleTypeLimits,
  {0397d27b-e60d-4c5c-84ca-dcee193ba5da}, !- Handle
  ActivityLevel,                          !- Name
  0,                                      !- Lower Limit Value {BasedOnField A4}
  ,                                       !- Upper Limit Value {BasedOnField A4}
  Continuous,                             !- Numeric Type
  ActivityLevel;                          !- Unit Type

OS:Schedule:Compact,
  {19742e27-8c88-4475-8284-4fd090480c1f}, !- Handle
  WORK_EFF_SCH,                           !- Name
  {b97e0496-6d32-4c85-9fca-113a0305bc2b}, !- Schedule Type Limits Name
  Through: 12/31,                         !- Field 1
  For: AllDays,                           !- Field 2
  Until: 24:00,                           !- Field 3
  0.0;                                    !- Field 4

OS:Schedule:Compact,
  {c98f9ca3-61c5-4a29-ace7-0cdde7724272}, !- Handle
  CLOTHING_SCH,                           !- Name
  {648a82a5-d3ab-4da4-b4dd-d14686ba2b4a}, !- Schedule Type Limits Name
  Through: 04/30,                         !- Field 1
  For: AllDays,                           !- Field 2
  Until: 24:00,                           !- Field 3
  1.0,                                    !- Field 4
  Through: 09/30,                         !- Field 5
  For: AllDays,                           !- Field 6
  Until: 24:00,                           !- Field 7
  0.5,                                    !- Field 8
  Through: 12/31,                         !- Field 9
  For: AllDays,                           !- Field 10
  Until: 24:00,                           !- Field 11
  1.0;                                    !- Field 12

OS:ScheduleTypeLimits,
  {4edc58ec-660c-48bf-94de-0fbf4e381802}, !- Handle
  {bf78b0c5-b973-41f3-923b-6a8b0c944b67}; !- Name

OS:ScheduleTypeLimits,
  {648a82a5-d3ab-4da4-b4dd-d14686ba2b4a}, !- Handle
  ClothingInsulation,                     !- Name
  0,                                      !- Lower Limit Value {BasedOnField A4}
  ,                                       !- Upper Limit Value {BasedOnField A4}
  Continuous,                             !- Numeric Type
  ClothingInsulation;                     !- Unit Type

OS:Schedule:Compact,
  {4c01e6a7-3f80-41be-be6d-674d4f91a6dd}, !- Handle
  AIR_VELO_SCH,                           !- Name
  {e712a14b-e300-410d-9e44-e0c16108cdf7}, !- Schedule Type Limits Name
  Through: 12/31,                         !- Field 1
  For: AllDays,                           !- Field 2
  Until: 24:00,                           !- Field 3
  0.2;                                    !- Field 4

OS:ScheduleTypeLimits,
  {942497b7-6258-4f4d-92c0-d8124ee06b35}, !- Handle
  {678b763d-0836-462a-bad5-cead2abd9d27}; !- Name

OS:ScheduleTypeLimits,
  {e712a14b-e300-410d-9e44-e0c16108cdf7}, !- Handle
  Velocity,                               !- Name
  0,                                      !- Lower Limit Value {BasedOnField A4}
  ,                                       !- Upper Limit Value {BasedOnField A4}
  Continuous,                             !- Numeric Type
  Velocity;                               !- Unit Type

OS:Surface,
  {de73b220-4f32-4143-b611-8ca0d3ebfe24}, !- Handle
  Deli_Wall_West,                         !- Name