
OS:Version,
  {ceb89251-6c25-483c-9912-f7e5358e1a70}, !- Handle
  1.3.0;                                  !- Version Identifier

OS:Site,
  {07e688e4-aab8-4d7c-8c70-4fc4f5bdc5e9}, !- Handle
  USA IL-CHICAGO-OHARE,                   !- Name
  41.77,                                  !- Latitude {deg}
  -87.75,                                 !- Longitude {deg}
  -6,                                     !- Time Zone {hr}
  190,                                    !- Elevation {m}
  City;                                   !- Terrain

OS:SimulationControl,
  {0669b5b4-f48e-46a9-babd-9029bffe1ee6}, !- Handle
  Yes,                                    !- Do Zone Sizing Calculation
  Yes,                                    !- Do System Sizing Calculation
  Yes,                                    !- Do Plant Sizing Calculation
  No,                                     !- Run Simulation for Sizing Periods
  Yes,                                    !- Run Simulation for Weather File Run Periods
  0.04,                                   !- Loads Convergence Tolerance Value
  0.2,                                    !- Temperature Convergence Tolerance Value {deltaC}
  FullInteriorAndExterior,                !- Solar Distribution
  40,                                     !- Maximum Number of Warmup Days
  6;                                      !- Minimum Number of Warmup Days

OS:ElectricEquipment:Definition,
  {163e3ce5-dc78-457b-8d74-da61995ecb08}, !- Handle
  Office_MiscPlug_Equip Definition,       !- Name
  Watts/Area,                             !- Design Level Calculation Method
  ,                                       !- Design Level {W}
  8.07,                                   !- Watts per Space Floor Area {W/m2}
  ,                                       !- Watts per Person {W/person}
  0,                                      !- Fraction Latent
  0.5,                                    !- Fraction Radiant
  0;                                      !- Fraction Lost

OS:ElectricEquipment,
  {c9a77d03-70a0-455c-8fa5-260c1df21798}, !- Handle
  Office_MiscPlug_Equip,                  !- Name
  {163e3ce5-dc78-457b-8d74-da61995ecb08}, !- Electric Equipment Definition Name
  {dc3f4b0e-e965-4969-89cc-77358ba153b0}, !- Space or SpaceType Name
  {cf397917-6dc5-408e-8bea-8d99445f3fea}, !- Schedule Name
  ,                                       !- Multiplier
  MiscPlug;                               !- End-Use Subcategory

OS:ThermalZone,
  {36365541-aab4-43ce-b18a-9abbc6a6ad8f}, !- Handle
  Office Thermal Zone,                    !- Name
  1,                                      !- Multiplier
  ,                                       !- Ceiling Height {m}
  ,                                       !- Volume {m3}
  ,                                       !- Floor Area {m2}
  ,                                       !- Zone Inside Convection Algorithm
  ,                                       !- Zone Outside Convection Algorithm
  ,                                       !- Zone Conditioning Equipment List Name
  {6c3b195f-b4ca-4533-a268-d823911ade2d}, !- Zone Air Inlet Port List
  {6a4d1c81-3e40-4eff-a9d6-780bd50586e2}, !- Zone Air Exhaust Port List
  {9709abe9-a289-4ecd-9398-6dbee77fac45}, !- Zone Air Node Name
  ,                                       !- Zone Return Air Node Name
  ,                                       !- Primary Daylighting Control Name
  ,                                       !- Fraction of Zone Controlled by Primary Daylighting Control
  ,                                       !- Secondary Daylighting Control Name
  ,                                       !- Fraction of Zone Controlled by Secondary Daylighting Control
  ,                                       !- Illuminance Map Name
  ,                                       !- Group Rendering Name
  {9582b538-2d48-4419-8846-51ea5b38f619}, !- Thermostat Name
  No;                                     !- Use Ideal Air Loads

OS:Node,
  {e81844d8-f0ce-472b-a577-a59d05f56c8e}, !- Handle
  {d96bca4e-10a1-4ba1-94f1-74630264a44d}, !- Name
  {9709abe9-a289-4ecd-9398-6dbee77fac45}, !- Inlet Port
  ;                                       !- Outlet Port

OS:Connection,
  {9709abe9-a289-4ecd-9398-6dbee77fac45}, !- Handle
  {13212ff8-3fff-483f-ac56-11dff696887b}, !- Name
  {36365541-aab4-43ce-b18a-9abbc6a6ad8f}, !- Source Object
  11,                                     !- Outlet Port
  {e81844d8-f0ce-472b-a577-a59d05f56c8e}, !- Target Object
  2;                                      !- Inlet Port

OS:PortList,
  {6c3b195f-b4ca-4533-a268-d823911ade2d}, !- Handle
  {05d7b49a-3322-4c14-8ab2-f4b5d81c6706}, !- Name
  {36365541-aab4-43ce-b18a-9abbc6a6ad8f}; !- HVAC Component

OS:PortList,
  {6a4d1c81-3e40-4eff-a9d6-780bd50586e2}, !- Handle
  {aadc03f0-b314-44eb-9837-5e4beebf29cb}, !- Name
  {36365541-aab4-43ce-b18a-9abbc6a6ad8f}; !- HVAC Component

OS:Sizing:Zone,
  {a1ebbf07-90eb-45c4-9626-20a29bed98a1}, !- Handle
  {36365541-aab4-43ce-b18a-9abbc6a6ad8f}, !- Zone or ZoneList Name
  14,                                     !- Zone Cooling Design Supply Air Temperature {C}
  40,                                     !- Zone Heating Design Supply Air Temperature {C}
  0.0085,                                 !- Zone Cooling Design Supply Air Humidity Ratio {kg-H2O/kg-air}
  0.008,                                  !- Zone Heating Design Supply Air Humidity Ratio {kg-H2O/kg-air}
  ,                                       !- Zone Heating Sizing Factor
  ,                                       !- Zone Cooling Sizing Factor
  DesignDay,                              !- Cooling Design Air Flow Method
  ,                                       !- Cooling Design Air Flow Rate {m3/s}
  ,                                       !- Cooling Minimum Air Flow per Zone Floor Area {m3/s-m2}
  ,                                       !- Cooling Minimum Air Flow {m3/s}
  ,                                       !- Cooling Minimum Air Flow Fraction
  DesignDay,                              !- Heating Design Air Flow Method
  ,                                       !- Heating Design Air Flow Rate {m3/s}
  ,                                       !- Heating Maximum Air Flow per Zone Floor Area {m3/s-m2}
  ,                                       !- Heating Maximum Air Flow {m3/s}
  ,                                       !- Heating Maximum Air Flow Fraction
  ,                                       !- Design Zone Air Distribution Effectiveness in Cooling Mode
  ;                                       !- Design Zone Air Distribution Effectiveness in Heating Mode

OS:ZoneHVAC:EquipmentList,
  {d75d5511-2e17-48cd-8f0d-cf9ef08479a9}, !- Handle
  {0f6ae63a-d899-43f1-9a41-c634fedd8022}, !- Name
  {36365541-aab4-43ce-b18a-9abbc6a6ad8f}; !- Thermal Zone

OS:Space,
  {dc3f4b0e-e965-4969-89cc-77358ba153b0}, !- Handle
  Office,                                 !- Name
  ,                                       !- Space Type Name
  ,                                       !- Default Construction Set Name
  ,                                       !- Default Schedule Set Name
  0,                                      !- Direction of Relative North {deg}
  0,                                      !- X Origin {m}
  0,                                      !- Y Origin {m}
  0,                                      !- Z Origin {m}
  ,                                       !- Building Story Name
  {36365541-aab4-43ce-b18a-9abbc6a6ad8f}, !- Thermal Zone Name
  Yes;                                    !- Part of Total Floor Area

OS:ThermostatSetpoint:DualSetpoint,
  {9582b538-2d48-4419-8846-51ea5b38f619}, !- Handle
  {e6b66a44-8ffb-4b98-b4ef-1a8efd89e4df}, !- Name
  {ea80bae5-a757-4f86-b599-31941a3b3e87}, !- Heating Setpoint Temperature Schedule Name
  {e6510fdf-1c0b-476a-8e0c-ad713c8bb433}; !- Cooling Setpoint Temperature Schedule Name

OS:Schedule:Compact,
  {ea80bae5-a757-4f86-b599-31941a3b3e87}, !- Handle
  HTGSETP_SCH,                            !- Name
  {b79ce054-5b8f-4afe-a268-6d7e4cdb8b31}, !- Schedule Type Limits Name
  Through: 12/31,                         !- Field 1
  For: Weekdays,                          !- Field 2
  Until: 06:00,                           !- Field 3
  15.5,                                   !- Field 4
  Until: 17:00,                           !- Field 5
  21.0,                                   !- Field 6
  Until: 24:00,                           !- Field 7
  15.5,                                   !- Field 8
  For WinterDesignDay,                    !- Field 9
  Until: 24:00,                           !- Field 10
  21.0,                                   !- Field 11
  For: Saturday,                          !- Field 12
  Until: 07:00,                           !- Field 13
  15.5,                                   !- Field 14
  Until: 16:00,                           !- Field 15
  21.0,                                   !- Field 16
  Until: 24:00,                           !- Field 17
  15.5,                                   !- Field 18
  For: AllOtherDays,                      !- Field 19
  Until: 24:00,                           !- Field 20
  15.5;                                   !- Field 21

OS:ScheduleTypeLimits,
  {b79ce054-5b8f-4afe-a268-6d7e4cdb8b31}, !- Handle
  Temperature,                            !- Name
  -60,                                    !- Lower Limit Value {BasedOnField A4}
  200,                                    !- Upper Limit Value {BasedOnField A4}
  CONTINUOUS,                             !- Numeric Type
  Temperature;                            !- Unit Type

OS:Schedule:Compact,
  {e6510fdf-1c0b-476a-8e0c-ad713c8bb433}, !- Handle
  CLGSETP_SCH,                            !- Name
  {b79ce054-5b8f-4afe-a268-6d7e4cdb8b31}, !- Schedule Type Limits Name
  Through: 12/31,                         !- Field 1
  For: Weekdays SummerDesignDay,          !- Field 2
  Until: 07:00,                           !- Field 3
  30.0,                                   !- Field 4
  Until: 17:00,                           !- Field 5
  24.0,                                   !- Field 6
  Until: 24:00,                           !- Field 7
  30.0,                                   !- Field 8
  For: Saturday,                          !- Field 9
  Until: 08:00,                           !- Field 10
  30.0,                                   !- Field 11
  Until: 16:00,                           !- Field 12
  24.0,                                   !- Field 13
  Until: 24:00,                           !- Field 14
  30.0,                                   !- Field 15
  For: AllOtherDays,                      !- Field 16
  Until: 24:00,                           !- Field 17
  30.0;                                   !- Field 18

OS:Schedule:Compact,
  {cf397917-6dc5-408e-8bea-8d99445f3fea}, !- Handle
  BLDG_EQUIP_SCH,                         !- Name
  {0f01274e-430e-4a53-a4f5-f8fad865a735}, !- Schedule Type Limits Name
  Through: 12/31,                         !- Field 1
  For: Weekdays,                          !- Field 2
  Until: 07:00,                           !- Field 3
  0.1,                                    !- Field 4
  Until: 08:00,                           !- Field 5
  0.5,                                    !- Field 6
  Until: 09:00,                           !- Field 7
  0.8,                                    !- Field 8
  Until: 12:00,                           !- Field 9
  0.9,                                    !- Field 10
  Until: 13:00,                           !- Field 11
  0.8,                                    !- Field 12
  Until: 17:00,                           !- Field 13
  0.9,                                    !- Field 14
  Until: 18:00,                           !- Field 15
  0.4,                                    !- Field 16
  Until: 24:00,                           !- Field 17
  0.1,                                    !- Field 18
  For: Saturday,                          !- Field 19
  Until: 08:00,                           !- Field 20
  0.1,                                    !- Field 21
  Until: 09:00,                           !- Field 22
  0.2,                                    !- Field 23
  Until: 12:00,                           !- Field 24
  0.4,                                    !- Field 25
  Until: 24:00,                           !- Field 26
  0.1,                                    !- Field 27
  For: SummerDesignDay,                   !- Field 28
  Until: 24:00,                           !- Field 29
  1.0,                                    !- Field 30
  For: WinterDesignDay,                   !- Field 31
  Until: 24:00,                           !- Field 32
  0.0,                                    !- Field 33
  For: Sunday Holidays AllOtherDays,      !- Field 34
  Until: 24:00,                           !- Field 35
  0.1;                                    !- Field 36

OS:ScheduleTypeLimits,
  {0f01274e-430e-4a53-a4f5-f8fad865a735}, !- Handle
  Fraction,                               !- Name
  0,                                      !- Lower Limit Value {BasedOnField A4}
  1,                                      !- Upper Limit Value {BasedOnField A4}
  CONTINUOUS;                             !- Numeric Type

OS:Meter,
  {8ebd5291-5b03-43ba-ac11-96bf508dd890}, !- Handle
  InteriorEquipment:Gas,                  !- Name
  hourly,                                 !- Reporting Frequency
  False,                                  !- Meter File Only
  False;                                  !- Cumulative

OS:Surface,
  {9ee5491b-9541-4030-98af-967ae3e41bb2}, !- Handle
  BulkStorage_Wall_East,                  !- Name
  Wall,                                   !- Surface Type
  {1702a6a2-ea35-4561-ad4a-8b6edc942704}, !- Construction Name
  {a8bea87f-f48b-4271-9bfb-5a95b6113a62}, !- Space Name
  Outdoors,                               !- Outside Boundary Condition
  ,                                       !- Outside Boundary Condition Object
  SunExposed,                             !- Sun Exposure
  WindExposed,                            !- Wind Exposure
  ,                                       !- View Factor to Ground
  ,                                       !- Number of Vertices
  45.7178, 30.4785, 8.534,                !- X,Y,Z Vertex 1 {m}
  45.7178, 30.4785, 0,                    !- X,Y,Z Vertex 2 {m}
  45.7178, 100.579, 0,                    !- X,Y,Z Vertex 3 {m}
  45.7178, 100.579, 8.534;                !- X,Y,Z Vertex 4 {m}

OS:Construction,
  {1702a6a2-ea35-4561-ad4a-8b6edc942704}, !- Handle
  Metal Bldg Semi-Cond Ext Wall,          !- Name
  ,                                       !- Surface Rendering Name
  {6d978db3-6be3-4633-ad1f-c124d9c6a541}, !- Layer 1
  {fb0cfe75-2697-41f2-87a4-8ce869ae5096}, !- Layer 2
  {ab6ea449-3d17-4b72-af3d-9ea82e213ec9}; !- Layer 3

OS:Material,
  {6d978db3-6be3-4633-ad1f-c124d9c6a541}, !- Handle
  Metal Siding,                           !- Name
  Smooth,                                 !- Roughness
  0.0015,                                 !- Thickness {m}
  44.96,                                  !- Conductivity {W/m-K}
  7688.86,                                !- Density {kg/m3}
  410,                                    !- Specific Heat {J/kg-K}
  0.9,                                    !- Thermal Absorptance
  0.2,                                    !- Solar Absorptance
  0.2;                                    !- Visible Absorptance

OS:Material,
  {fb0cfe75-2697-41f2-87a4-8ce869ae5096}, !- Handle
  Metal Building Semi-Cond Wall Insulation, !- Name
  MediumRough,                            !- Roughness
  0.0495494599433393,                     !- Thickness {m}
  0.049,                                  !- Conductivity {W/m-K}
  265,                                    !- Density {kg/m3}
  836.8,                                  !- Specific Heat {J/kg-K}
  0.9,                                    !- Thermal Absorptance
  0.7,                                    !- Solar Absorptance
  0.7;                                    !- Visible Absorptance

OS:Material,
  {ab6ea449-3d17-4b72-af3d-9ea82e213ec9}, !- Handle
  1/2IN Gypsum,                           !- Name
  Smooth,                                 !- Roughness
  0.0127,                                 !- Thickness {m}
  0.16,                                   !- Conductivity {W/m-K}
  784.9,                                  !- Density {kg/m3}
  830,                                    !- Specific Heat {J/kg-K}
  0.9,                                    !- Thermal Absorptance
  0.92,                                   !- Solar Absorptance
  0.92;                                   !- Visible Absorptance

OS:ThermalZone,
  {bdb87eee-5791-458f-8d38-a7a322890fe1}, !- Handle
  BulkStorage Thermal Zone,               !- Name
  1,                                      !- Multiplier
  ,                                       !- Ceiling Height {m}
  ,                                       !- Volume {m3}
  ,                                       !- Floor Area {m2}
  ,                                       !- Zone Inside Convection Algorithm
  ,                                       !- Zone Outside Convection Algorithm
  ,                                       !- Zone Conditioning Equipment List Name
  {6451d7d2-4e8e-4aa7-83f6-4b977d4e2a74}, !- Zone Air Inlet Port List
  {7f231634-828a-43a0-87ba-1abb1dca333d}, !- Zone Air Exhaust Port List
  {0b4bcd87-4758-43e4-8662-047d460cef1a}, !- Zone Air Node Name
  ,                                       !- Zone Return Air Node Name
  ,                                       !- Primary Daylighting Control Name
  ,                                       !- Fraction of Zone Controlled by Primary Daylighting Control
  ,                                       !- Secondary Daylighting Control Name
  ,                                       !- Fraction of Zone Controlled by Secondary Daylighting Control
  ,                                       !- Illuminance Map Name
  ,                                       !- Group Rendering Name
  {64b7cf91-987e-4045-b181-c6da7aa4f599}, !- Thermostat Name
  No;                                     !- Use Ideal Air Loads

OS:Node,
  {ccec69ea-ef2f-49ea-a982-7019a43b14e6}, !- Handle
  {76c4b06f-1c20-47bd-a03b-caccf02dd645}, !- Name
  {0b4bcd87-4758-43e4-8662-047d460cef1a}, !- Inlet Port
  ;                                       !- Outlet Port

OS:Connection,
  {0b4bcd87-4758-43e4-8662-047d460cef1a}, !- Handle
  {5e0d1b3f-732f-4553-a1f3-0970e1aa3495}, !- Name
  {bdb87eee-5791-458f-8d38-a7a322890fe1}, !- Source Object
  11,                                     !- Outlet Port
  {ccec69ea-ef2f-49ea-a982-7019a43b14e6}, !- Target Object
  2;                                      !- Inlet Port

OS:PortList,
  {6451d7d2-4e8e-4aa7-83f6-4b977d4e2a74}, !- Handle
  {4c2b617f-eea2-4e89-a6ff-253b53c940ac}, !- Name
  {bdb87eee-5791-458f-8d38-a7a322890fe1}; !- HVAC Component

OS:PortList,
  {7f231634-828a-43a0-87ba-1abb1dca333d}, !- Handle
  {46318763-0fff-41ac-932f-092f3b8148ae}, !- Name
  {bdb87eee-5791-458f-8d38-a7a322890fe1}; !- HVAC Component

OS:Sizing:Zone,
  {0229742d-1d19-4597-af72-91d576b1682d}, !- Handle
  {bdb87eee-5791-458f-8d38-a7a322890fe1}, !- Zone or ZoneList Name
  14,                                     !- Zone Cooling Design Supply Air Temperature {C}
  40,                                     !- Zone Heating Design Supply Air Temperature {C}
  0.0085,                                 !- Zone Cooling Design Supply Air Humidity Ratio {kg-H2O/kg-air}
  0.008,                                  !- Zone Heating Design Supply Air Humidity Ratio {kg-H2O/kg-air}
  ,                                       !- Zone Heating Sizing Factor
  ,                                       !- Zone Cooling Sizing Factor
  DesignDay,                              !- Cooling Design Air Flow Method
  ,                                       !- Cooling Design Air Flow Rate {m3/s}
  ,                                       !- Cooling Minimum Air Flow per Zone Floor Area {m3/s-m2}
  ,                                       !- Cooling Minimum Air Flow {m3/s}
  ,                                       !- Cooling Minimum Air Flow Fraction
  DesignDay,                              !- Heating Design Air Flow Method
  ,                                       !- Heating Design Air Flow Rate {m3/s}
  ,                                       !- Heating Maximum Air Flow per Zone Floor Area {m3/s-m2}
  ,                                       !- Heating Maximum Air Flow {m3/s}
  ,                                       !- Heating Maximum Air Flow Fraction
  ,                                       !- Design Zone Air Distribution Effectiveness in Cooling Mode
  ;                                       !- Design Zone Air Distribution Effectiveness in Heating Mode

OS:ZoneHVAC:EquipmentList,
  {b2d6dd4d-fd84-485a-a818-0604dce26fdc}, !- Handle
  {2fc1e184-4e24-4793-b343-cf23a49c0938}, !- Name
  {bdb87eee-5791-458f-8d38-a7a322890fe1}; !- Thermal Zone

OS:Space,
  {a8bea87f-f48b-4271-9bfb-5a95b6113a62}, !- Handle
  BulkStorage,                            !- Name
  ,                                       !- Space Type Name
  ,                                       !- Default Construction Set Name
  ,                                       !- Default Schedule Set Name
  0,                                      !- Direction of Relative North {deg}
  0,                                      !- X Origin {m}
  0,                                      !- Y Origin {m}
  0,                                      !- Z Origin {m}
  ,                                       !- Building Story Name
  {bdb87eee-5791-458f-8d38-a7a322890fe1}, !- Thermal Zone Name
  Yes;                                    !- Part of Total Floor Area

OS:ThermostatSetpoint:DualSetpoint,
  {64b7cf91-987e-4045-b181-c6da7aa4f599}, !- Handle
  {e97a979d-abad-434a-85b6-b5217203febe}, !- Name
  {1ef4ffcb-be74-49e1-aec8-54d82b1872db}, !- Heating Setpoint Temperature Schedule Name
  {e6510fdf-1c0b-476a-8e0c-ad713c8bb433}; !- Cooling Setpoint Temperature Schedule Name

OS:Schedule:Compact,
  {1ef4ffcb-be74-49e1-aec8-54d82b1872db}, !- Handle
  HTGSETP_BulkStorage_SCH,                !- Name
  {b79ce054-5b8f-4afe-a268-6d7e4cdb8b31}, !- Schedule Type Limits Name
  Through: 12/31,                         !- Field 1
  For: AllDays,                           !- Field 2
  Until: 24:00,                           !- Field 3
  7.2;                                    !- Field 4

OS:SpaceInfiltration:DesignFlowRate,
  {4c5dfeef-3e8f-4684-88bd-e85e691df79a}, !- Handle
  Office_Infiltration,                    !- Name
  {dc3f4b0e-e965-4969-89cc-77358ba153b0}, !- Space or SpaceType Name
  {1deb09df-9d0e-4bd5-82d3-1fb7c9fbf1f4}, !- Schedule Name
  Flow/ExteriorArea,                      !- Design Flow Rate Calculation Method
  ,                                       !- Design Flow Rate {m3/s}
  ,                                       !- Flow per Space Floor Area {m3/s-m2}
  0.000302,                               !- Flow per Exterior Surface Area {m3/s-m2}
  ,                                       !- Air Changes per Hour {1/hr}
  1,                                      !- Constant Term Coefficient
  0,                                      !- Temperature Term Coefficient
  0,                                      !- Velocity Term Coefficient
  0;                                      !- Velocity Squared Term Coefficient

OS:Schedule:Compact,
  {1deb09df-9d0e-4bd5-82d3-1fb7c9fbf1f4}, !- Handle
  ALWAYS_ON,                              !- Name
  {5c93b3c4-0dd9-4626-8dd8-33d18224b500}, !- Schedule Type Limits Name
  Through: 12/31,                         !- Field 1
  For: AllDays,                           !- Field 2
  Until: 24:00,                           !- Field 3
  1;                                      !- Field 4

OS:ScheduleTypeLimits,
  {5c93b3c4-0dd9-4626-8dd8-33d18224b500}, !- Handle
  On/Off,                                 !- Name
  0,                                      !- Lower Limit Value {BasedOnField A4}
  1,                                      !- Upper Limit Value {BasedOnField A4}
  DISCRETE,                               !- Numeric Type
  Availability;                           !- Unit Type

OS:Meter,
  {26952e57-7f46-4847-8956-ac2d56a3565b}, !- Handle
  Heating:Electricity,                    !- Name
  hourly,                                 !- Reporting Frequency
  False,                                  !- Meter File Only
  False;                                  !- Cumulative

OS:Surface,
  {299e5038-1cfc-4419-aa67-c2e67d01eb0b}, !- Handle
  Fine Storage Office_Wall_West,          !- Name
  Wall,                                   !- Surface Type
  {1702a6a2-ea35-4561-ad4a-8b6edc942704}, !- Construction Name
  {6672d645-bcb7-4f80-9e76-84665b16523a}, !- Space Name
  Outdoors,                               !- Outside Boundary Condition
  ,                                       !- Outside Boundary Condition Object
  SunExposed,                             !- Sun Exposure
  WindExposed,                            !- Wind Exposure
  ,                                       !- View Factor to Ground
  ,                                       !- Number of Vertices
  0, 9.1435, 8.534,                       !- X,Y,Z Vertex 1 {m}
  0, 9.1435, 4.267,                       !- X,Y,Z Vertex 2 {m}
  0, 0, 4.267,                            !- X,Y,Z Vertex 3 {m}
  0, 0, 8.534;                            !- X,Y,Z Vertex 4 {m}

OS:ThermalZone,
  {cd91c4ca-d305-4ae8-8ef3-9013293037a9}, !- Handle
  FineStorage Thermal Zone,               !- Name
  1,                                      !- Multiplier
  ,                                       !- Ceiling Height {m}
  ,                                       !- Volume {m3}
  ,                                       !- Floor Area {m2}
  ,                                       !- Zone Inside Convection Algorithm
  ,                                       !- Zone Outside Convection Algorithm
  ,                                       !- Zone Conditioning Equipment List Name
  {eac6ebee-a12b-4e99-83d0-faf39b32d0a1}, !- Zone Air Inlet Port List
  {74f3addd-9232-44bf-8d0f-965db4addf21}, !- Zone Air Exhaust Port List
  {49a41fcb-a22a-4086-9b36-0c4a5a4bf6b7}, !- Zone Air Node Name
  ,                                       !- Zone Return Air Node Name
  ,                                       !- Primary Daylighting Control Name
  ,                                       !- Fraction of Zone Controlled by Primary Daylighting Control
  ,                                       !- Secondary Daylighting Control Name
  ,                                       !- Fraction of Zone Controlled by Secondary Daylighting Control
  ,                                       !- Illuminance Map Name
  ,                                       !- Group Rendering Name
  {2ab2840c-6b8d-4996-8d83-fdaa28d4e6e4}, !- Thermostat Name
  No;                                     !- Use Ideal Air Loads

OS:Node,
  {16012687-bd52-4cda-8454-2f7d5d63354f}, !- Handle
  {ba8b4ca7-bea1-43f0-8e1b-3d1c5a0421f6}, !- Name
  {49a41fcb-a22a-4086-9b36-0c4a5a4bf6b7}, !- Inlet Port
  ;                                       !- Outlet Port

OS:Connection,
  {49a41fcb-a22a-4086-9b36-0c4a5a4bf6b7}, !- Handle
  {8366dc9a-36f1-4d91-b451-ad335754725a}, !- Name
  {cd91c4ca-d305-4ae8-8ef3-9013293037a9}, !- Source Object
  11,                                     !- Outlet Port
  {16012687-bd52-4cda-8454-2f7d5d63354f}, !- Target Object
  2;                                      !- Inlet Port

OS:PortList,
  {eac6ebee-a12b-4e99-83d0-faf39b32d0a1}, !- Handle
  {558fb5d8-f75e-4df0-ad2d-f710a42f04a5}, !- Name
  {cd91c4ca-d305-4ae8-8ef3-9013293037a9}; !- HVAC Component

OS:PortList,
  {74f3addd-9232-44bf-8d0f-965db4addf21}, !- Handle
  {5e308e2c-50a0-4baf-99cc-7d396ca14be9}, !- Name
  {cd91c4ca-d305-4ae8-8ef3-9013293037a9}; !- HVAC Component

OS:Sizing:Zone,
  {9be91d96-a5c5-45d2-abb2-9f4ccd0d55df}, !- Handle
  {cd91c4ca-d305-4ae8-8ef3-9013293037a9}, !- Zone or ZoneList Name
  14,                                     !- Zone Cooling Design Supply Air Temperature {C}
  40,                                     !- Zone Heating Design Supply Air Temperature {C}
  0.0085,                                 !- Zone Cooling Design Supply Air Humidity Ratio {kg-H2O/kg-air}
  0.008,                                  !- Zone Heating Design Supply Air Humidity Ratio {kg-H2O/kg-air}
  ,                                       !- Zone Heating Sizing Factor
  ,                                       !- Zone Cooling Sizing Factor
  DesignDay,                              !- Cooling Design Air Flow Method
  ,                                       !- Cooling Design Air Flow Rate {m3/s}
  ,                                       !- Cooling Minimum Air Flow per Zone Floor Area {m3/s-m2}
  ,                                       !- Cooling Minimum Air Flow {m3/s}
  ,                                       !- Cooling Minimum Air Flow Fraction
  DesignDay,                              !- Heating Design Air Flow Method
  ,                                       !- Heating Design Air Flow Rate {m3/s}
  ,                                       !- Heating Maximum Air Flow per Zone Floor Area {m3/s-m2}
  ,                                       !- Heating Maximum Air Flow {m3/s}
  ,                                       !- Heating Maximum Air Flow Fraction
  ,                                       !- Design Zone Air Distribution Effectiveness in Cooling Mode
  ;                                       !- Design Zone Air Distribution Effectiveness in Heating Mode

OS:ZoneHVAC:EquipmentList,
  {8c882485-86d7-44fe-9286-81d3b7bb0062}, !- Handle
  {b54c6028-279c-40d6-9760-35385d62ee27}, !- Name
  {cd91c4ca-d305-4ae8-8ef3-9013293037a9}; !- Thermal Zone

OS:Space,
  {6672d645-bcb7-4f80-9e76-84665b16523a}, !- Handle
  FineStorage,                            !- Name
  ,                                       !- Space Type Name