
OS:Version,
  {9b8f86f3-c285-4d74-b400-30fa3aead347}, !- Handle
  1.5.0;                                  !- Version Identifier

OS:Site,
  {97b6fde4-0b9a-4c9f-9ad8-d6b22cd22de4}, !- Handle
  USA IL-CHICAGO-OHARE,                   !- Name
  41.77,                                  !- Latitude {deg}
  -87.75,                                 !- Longitude {deg}
  -6,                                     !- Time Zone {hr}
  190,                                    !- Elevation {m}
  City;                                   !- Terrain

OS:SimulationControl,
  {07e8360f-1b15-49dd-9b51-9cf0970014c2}, !- Handle
  Yes,                                    !- Do Zone Sizing Calculation
  Yes,                                    !- Do System Sizing Calculation
  Yes,                                    !- Do Plant Sizing Calculation
  No,                                     !- Run Simulation for Sizing Periods
  Yes,                                    !- Run Simulation for Weather File Run Periods
  0.04,                                   !- Loads Convergence Tolerance Value
  0.2,                                    !- Temperature Convergence Tolerance Value {deltaC}
  FullInteriorAndExterior,                !- Solar Distribution
  25,                                     !- Maximum Number of Warmup Days
  6;                                      !- Minimum Number of Warmup Days

OS:SubSurface,
  {cf866514-dd28-4985-b7a1-9c6a1da40cd5}, !- Handle
  Point_Of_Sale_Wall_South_Glazing,       !- Name
  FixedWindow,                            !- Sub Surface Type
  ,                                       !- Construction Name
  {51c9c74a-47c7-42cb-9f91-1229f34c595a}, !- Surface Name
  ,                                       !- Outside Boundary Condition Object
  ,                                       !- View Factor to Ground
  ,                                       !- Shading Control Name
  ,                                       !- Frame and Divider Name
  1,                                      !- Multiplier
  ,                                       !- Number of Vertices
  0.05, 0, 2.66,                          !- X,Y,Z Vertex 1 {m}
  0.05, 0, 1.14,                          !- X,Y,Z Vertex 2 {m}
  25.085, 0, 1.14,                        !- X,Y,Z Vertex 3 {m}
  25.085, 0, 2.66;                        !- X,Y,Z Vertex 4 {m}

OS:Surface,
  {51c9c74a-47c7-42cb-9f91-1229f34c595a}, !- Handle
  Point_Of_Sale_Wall_South,               !- Name
  Wall,                                   !- Surface Type
  ,                                       !- Construction Name
  {466e499c-89d9-4d74-aaec-4ff056798ab0}, !- Space Name
  Outdoors,                               !- Outside Boundary Condition
  ,                                       !- Outside Boundary Condition Object
  SunExposed,                             !- Sun Exposure
  WindExposed,                            !- Wind Exposure
  ,                                       !- View Factor to Ground
  ,                                       !- Number of Vertices
  0, 0, 6.096,                            !- X,Y,Z Vertex 1 {m}
  0, 0, 0,                                !- X,Y,Z Vertex 2 {m}
  25.135, 0, 0,                           !- X,Y,Z Vertex 3 {m}
  25.135, 0, 6.096;                       !- X,Y,Z Vertex 4 {m}

OS:ThermalZone,
  {8a21c127-e721-4d0d-ad28-ac86dbf44c14}, !- Handle
  Point_Of_Sale Thermal Zone,             !- Name
  1,                                      !- Multiplier
  ,                                       !- Ceiling Height {m}
  ,                                       !- Volume {m3}
  ,                                       !- Floor Area {m2}
  ,                                       !- Zone Inside Convection Algorithm
  ,                                       !- Zone Outside Convection Algorithm
  ,                                       !- Zone Conditioning Equipment List Name
  {5ba8ec49-1ff9-4183-8d97-047b3d73169a}, !- Zone Air Inlet Port List
  {99e6f101-f501-45d7-ab2f-2662cb8115d9}, !- Zone Air Exhaust Port List
  {eb9d1135-8656-4d1a-aeda-6517114ff8c9}, !- Zone Air Node Name
  ,                                       !- Zone Return Air Node Name
  ,                                       !- Primary Daylighting Control Name
  ,                                       !- Fraction of Zone Controlled by Primary Daylighting Control
  ,                                       !- Secondary Daylighting Control Name
  ,                                       !- Fraction of Zone Controlled by Secondary Daylighting Control
  ,                                       !- Illuminance Map Name
  {60369397-c082-4db6-b903-bae1f9c41c3c}, !- Group Rendering Name
  {31126c82-36a6-420b-a585-b6b7c7a28ea1}, !- Thermostat Name
  Yes;                                    !- Use Ideal Air Loads

OS:Node,
  {418f4095-a08f-4874-83e4-1e3f41ac12ef}, !- Handle
  {ce15ad19-682d-44ac-b5ec-307a9f6e34a5}, !- Name
  {eb9d1135-8656-4d1a-aeda-6517114ff8c9}, !- Inlet Port
  ;                                       !- Outlet Port

OS:Connection,
  {eb9d1135-8656-4d1a-aeda-6517114ff8c9}, !- Handle
  {bd7e8ccb-af20-4407-8001-8caccb17e56e}, !- Name
  {8a21c127-e721-4d0d-ad28-ac86dbf44c14}, !- Source Object
  11,                                     !- Outlet Port
  {418f4095-a08f-4874-83e4-1e3f41ac12ef}, !- Target Object
  2;                                      !- Inlet Port

OS:PortList,
  {5ba8ec49-1ff9-4183-8d97-047b3d73169a}, !- Handle
  {61a259df-a40d-417c-b4c0-6eb53a9c7158}, !- Name
  {8a21c127-e721-4d0d-ad28-ac86dbf44c14}; !- HVAC Component

OS:PortList,
  {99e6f101-f501-45d7-ab2f-2662cb8115d9}, !- Handle
  {c2dcf2ad-54e1-468e-ba27-cc37e838ca3a}, !- Name
  {8a21c127-e721-4d0d-ad28-ac86dbf44c14}; !- HVAC Component

OS:Sizing:Zone,
  {ad925bf2-296e-4566-beaf-b58fa0253f88}, !- Handle
  {8a21c127-e721-4d0d-ad28-ac86dbf44c14}, !- Zone or ZoneList Name
  14,                                     !- Zone Cooling Design Supply Air Temperature {C}
  40,                                     !- Zone Heating Design Supply Air Temperature {C}
  0.0085,                                 !- Zone Cooling Design Supply Air Humidity Ratio {kg-H2O/kg-air}
  0.008,                                  !- Zone Heating Design Supply Air Humidity Ratio {kg-H2O/kg-air}
  ,                                       !- Zone Heating Sizing Factor
  ,                                       !- Zone Cooling Sizing Factor
  DesignDay,                              !- Cooling Design Air Flow Method
  ,                                       !- Cooling Design Air Flow Rate {m3/s}
  ,                                       !- Cooling Minimum Air Flow per Zone Floor Area {m3/s-m2}
  ,                                       !- Cooling Minimum Air Flow {m3/s}
  ,                                       !- Cooling Minimum Air Flow Fraction
  DesignDay,                              !- Heating Design Air Flow Method
  ,                                       !- Heating Design Air Flow Rate {m3/s}
  ,                                       !- Heating Maximum Air Flow per Zone Floor Area {m3/s-m2}
  ,                                       !- Heating Maximum Air Flow {m3/s}
  ,                                       !- Heating Maximum Air Flow Fraction
  ,                                       !- Design Zone Air Distribution Effectiveness in Cooling Mode
  ;                                       !- Design Zone Air Distribution Effectiveness in Heating Mode

OS:ZoneHVAC:EquipmentList,
  {7d0b0876-eaf9-4e2b-9a02-5953fa35bde1}, !- Handle
  {6b9a19f3-8fc1-473c-bff8-e88c7333d866}, !- Name
  {8a21c127-e721-4d0d-ad28-ac86dbf44c14}; !- Thermal Zone

OS:Space,
  {466e499c-89d9-4d74-aaec-4ff056798ab0}, !- Handle
  Point_Of_Sale,                          !- Name
  {29782b20-d6a9-455b-8b3b-526e9aecc52d}, !- Space Type Name
  ,                                       !- Default Construction Set Name
  ,                                       !- Default Schedule Set Name
  0,                                      !- Direction of Relative North {deg}
  0,                                      !- X Origin {m}
  0,                                      !- Y Origin {m}
  0,                                      !- Z Origin {m}
  {96a940e4-ac55-4272-901f-0e5307fc9b25}, !- Building Story Name
  {8a21c127-e721-4d0d-ad28-ac86dbf44c14}, !- Thermal Zone Name
  Yes;                                    !- Part of Total Floor Area

OS:ThermostatSetpoint:DualSetpoint,
  {7cf7838f-ec21-4371-80a8-ed418bee779e}, !- Handle
  {8a254091-f556-4ef8-a820-3d6f67c47f2a}, !- Name
  ,                                       !- Heating Setpoint Temperature Schedule Name
  ;                                       !- Cooling Setpoint Temperature Schedule Name

OS:ScheduleTypeLimits,
  {2ede9aad-7a3a-464b-8d09-b153fc52fe62}, !- Handle
  Temperature,                            !- Name
  -60,                                    !- Lower Limit Value {BasedOnField A4}
  200,                                    !- Upper Limit Value {BasedOnField A4}
  CONTINUOUS,                             !- Numeric Type
  Temperature;                            !- Unit Type

OS:Surface,
  {acbc97e4-97c4-4b85-8528-a4b56bd745ae}, !- Handle
  Front_Retail_Roof,                      !- Name
  RoofCeiling,                            !- Surface Type
  ,                                       !- Construction Name
  {9fc0bcf3-922f-4fb6-a0fc-19b5789c8d9c}, !- Space Name
  Outdoors,                               !- Outside Boundary Condition
  ,                                       !- Outside Boundary Condition Object
  SunExposed,                             !- Sun Exposure
  WindExposed,                            !- Wind Exposure
  ,                                       !- View Factor to Ground
  ,                                       !- Number of Vertices
  25.135, 0, 6.096,                       !- X,Y,Z Vertex 1 {m}
  25.135, 6, 6.096,                       !- X,Y,Z Vertex 2 {m}
  0, 6, 6.096,                            !- X,Y,Z Vertex 3 {m}
  0, 0, 6.096;                            !- X,Y,Z Vertex 4 {m}

OS:ThermalZone,
  {4204309c-748e-4bef-a448-c1bad29ac405}, !- Handle
  Front_Retail Thermal Zone,              !- Name
  1,                                      !- Multiplier
  ,                                       !- Ceiling Height {m}
  ,                                       !- Volume {m3}
  ,                                       !- Floor Area {m2}
  ,                                       !- Zone Inside Convection Algorithm
  ,                                       !- Zone Outside Convection Algorithm
  ,                                       !- Zone Conditioning Equipment List Name
  {a9fcf523-47d9-42fd-b7c8-84f06f30f1e1}, !- Zone Air Inlet Port List
  {2f63a16b-8558-4a15-bce6-6d1d86dac326}, !- Zone Air Exhaust Port List
  {f37cc9a5-9997-4b3c-a98e-3513a52e9af0}, !- Zone Air Node Name
  ,                                       !- Zone Return Air Node Name
  ,                                       !- Primary Daylighting Control Name
  ,                                       !- Fraction of Zone Controlled by Primary Daylighting Control
  ,                                       !- Secondary Daylighting Control Name
  ,                                       !- Fraction of Zone Controlled by Secondary Daylighting Control
  ,                                       !- Illuminance Map Name
  {c0cbbfa3-0d92-409f-a94f-4d952405a60a}, !- Group Rendering Name
  {31126c82-36a6-420b-a585-b6b7c7a28ea1}, !- Thermostat Name
  Yes;                                    !- Use Ideal Air Loads

OS:Node,
  {157cac5b-6a57-440a-b8a5-f374891d37e9}, !- Handle
  {8f60280e-635c-4287-bc2e-0d41f01fcfd8}, !- Name
  {f37cc9a5-9997-4b3c-a98e-3513a52e9af0}, !- Inlet Port
  ;                                       !- Outlet Port

OS:Connection,
  {f37cc9a5-9997-4b3c-a98e-3513a52e9af0}, !- Handle
  {c922c267-883d-4512-873b-ef7532ed38c0}, !- Name
  {4204309c-748e-4bef-a448-c1bad29ac405}, !- Source Object
  11,                                     !- Outlet Port
  {157cac5b-6a57-440a-b8a5-f374891d37e9}, !- Target Object
  2;                                      !- Inlet Port

OS:PortList,
  {a9fcf523-47d9-42fd-b7c8-84f06f30f1e1}, !- Handle
  {2173e00e-ebe1-4e5c-b954-5487b9950f47}, !- Name
  {4204309c-748e-4bef-a448-c1bad29ac405}; !- HVAC Component

OS:PortList,
  {2f63a16b-8558-4a15-bce6-6d1d86dac326}, !- Handle
  {900e6b0b-289d-46aa-82e0-aeb7add4b167}, !- Name
  {4204309c-748e-4bef-a448-c1bad29ac405}; !- HVAC Component

OS:Sizing:Zone,
  {2f9bd477-fba0-48e2-ac3f-219ba661ce2b}, !- Handle
  {4204309c-748e-4bef-a448-c1bad29ac405}, !- Zone or ZoneList Name
  14,                                     !- Zone Cooling Design Supply Air Temperature {C}
  40,                                     !- Zone Heating Design Supply Air Temperature {C}
  0.0085,                                 !- Zone Cooling Design Supply Air Humidity Ratio {kg-H2O/kg-air}
  0.008,                                  !- Zone Heating Design Supply Air Humidity Ratio {kg-H2O/kg-air}
  ,                                       !- Zone Heating Sizing Factor
  ,                                       !- Zone Cooling Sizing Factor
  DesignDay,                              !- Cooling Design Air Flow Method
  ,                                       !- Cooling Design Air Flow Rate {m3/s}
  ,                                       !- Cooling Minimum Air Flow per Zone Floor Area {m3/s-m2}
  ,                                       !- Cooling Minimum Air Flow {m3/s}
  ,                                       !- Cooling Minimum Air Flow Fraction
  DesignDay,                              !- Heating Design Air Flow Method
  ,                                       !- Heating Design Air Flow Rate {m3/s}
  ,                                       !- Heating Maximum Air Flow per Zone Floor Area {m3/s-m2}
  ,                                       !- Heating Maximum Air Flow {m3/s}
  ,                                       !- Heating Maximum Air Flow Fraction
  ,                                       !- Design Zone Air Distribution Effectiveness in Cooling Mode
  ;                                       !- Design Zone Air Distribution Effectiveness in Heating Mode

OS:ZoneHVAC:EquipmentList,
  {66ad3496-9bc7-4035-9b48-e4586d97b465}, !- Handle
  {717a6990-e1e1-4a5a-94e8-77ce8c569ca3}, !- Name
  {4204309c-748e-4bef-a448-c1bad29ac405}; !- Thermal Zone

OS:Space,
  {9fc0bcf3-922f-4fb6-a0fc-19b5789c8d9c}, !- Handle
  Front_Retail,                           !- Name
  {29782b20-d6a9-455b-8b3b-526e9aecc52d}, !- Space Type Name
  ,                                       !- Default Construction Set Name
  ,                                       !- Default Schedule Set Name
  0,                                      !- Direction of Relative North {deg}
  29.135,                                 !- X Origin {m}
  0,                                      !- Y Origin {m}
  0,                                      !- Z Origin {m}
  {96a940e4-ac55-4272-901f-0e5307fc9b25}, !- Building Story Name
  {4204309c-748e-4bef-a448-c1bad29ac405}, !- Thermal Zone Name
  Yes;                                    !- Part of Total Floor Area

OS:ThermostatSetpoint:DualSetpoint,
  {29caf245-587e-4e74-843b-af4621157d99}, !- Handle
  {094b9afa-d51e-4b45-a8d7-08719ba50b1f}, !- Name
  ,                                       !- Heating Setpoint Temperature Schedule Name
  ;                                       !- Cooling Setpoint Temperature Schedule Name

OS:ScheduleTypeLimits,
  {7fe240a9-0fc2-48a5-abc1-b55b029b98a1}, !- Handle
  Humidity,                               !- Name
  10,                                     !- Lower Limit Value {BasedOnField A4}
  90,                                     !- Upper Limit Value {BasedOnField A4}
  CONTINUOUS;                             !- Numeric Type

OS:ThermalZone,
  {a3839539-31f4-4c6b-ab3f-701df2289ac4}, !- Handle
  Back_Space Thermal Zone,                !- Name
  1,                                      !- Multiplier
  ,                                       !- Ceiling Height {m}
  ,                                       !- Volume {m3}
  ,                                       !- Floor Area {m2}
  ,                                       !- Zone Inside Convection Algorithm
  ,                                       !- Zone Outside Convection Algorithm
  ,                                       !- Zone Conditioning Equipment List Name
  {c6fa730b-f1c2-48f3-890e-8bbf59335999}, !- Zone Air Inlet Port List
  {f4d9487e-7e50-48f1-8799-70abf43630a6}, !- Zone Air Exhaust Port List
  {05653746-5f9d-4ca7-b787-d864afef5e1a}, !- Zone Air Node Name
  ,                                       !- Zone Return Air Node Name
  ,                                       !- Primary Daylighting Control Name
  ,                                       !- Fraction of Zone Controlled by Primary Daylighting Control
  ,                                       !- Secondary Daylighting Control Name
  ,                                       !- Fraction of Zone Controlled by Secondary Daylighting Control
  ,                                       !- Illuminance Map Name
  {af75dfd5-fef0-49a2-a4c7-b2ed54308c63}, !- Group Rendering Name
  {eba70ac3-180d-4867-9cac-50ae99ec1905}, !- Thermostat Name
  Yes;                                    !- Use Ideal Air Loads

OS:Node,
  {e49d15c5-369f-45dc-9464-98322f572089}, !- Handle
  {1ccac37c-c34f-4e06-aabe-eb8957e1d05d}, !- Name
  {05653746-5f9d-4ca7-b787-d864afef5e1a}, !- Inlet Port
  ;                                       !- Outlet Port

OS:Connection,
  {05653746-5f9d-4ca7-b787-d864afef5e1a}, !- Handle
  {c8b50ff5-3171-4b85-9994-ede67d6c7c47}, !- Name
  {a3839539-31f4-4c6b-ab3f-701df2289ac4}, !- Source Object
  11,                                     !- Outlet Port
  {e49d15c5-369f-45dc-9464-98322f572089}, !- Target Object
  2;                                      !- Inlet Port

OS:PortList,
  {c6fa730b-f1c2-48f3-890e-8bbf59335999}, !- Handle
  {12cbf0f0-ecb1-42a9-9df8-03b9445777e7}, !- Name
  {a3839539-31f4-4c6b-ab3f-701df2289ac4}; !- HVAC Component

OS:PortList,
  {f4d9487e-7e50-48f1-8799-70abf43630a6}, !- Handle
  {d9e12285-fff1-4abe-83be-0aea40408301}, !- Name
  {a3839539-31f4-4c6b-ab3f-701df2289ac4}; !- HVAC Component

OS:Sizing:Zone,
  {694ba8a2-68b2-4f0e-988a-f59f28adab89}, !- Handle
  {a3839539-31f4-4c6b-ab3f-701df2289ac4}, !- Zone or ZoneList Name
  14,                                     !- Zone Cooling Design Supply Air Temperature {C}
  40,                                     !- Zone Heating Design Supply Air Temperature {C}
  0.0085,                                 !- Zone Cooling Design Supply Air Humidity Ratio {kg-H2O/kg-air}
  0.008,                                  !- Zone Heating Design Supply Air Humidity Ratio {kg-H2O/kg-air}
  ,                                       !- Zone Heating Sizing Factor
  ,                                       !- Zone Cooling Sizing Factor
  DesignDay,                              !- Cooling Design Air Flow Method
  ,                                       !- Cooling Design Air Flow Rate {m3/s}
  ,                                       !- Cooling Minimum Air Flow per Zone Floor Area {m3/s-m2}
  ,                                       !- Cooling Minimum Air Flow {m3/s}
  ,                                       !- Cooling Minimum Air Flow Fraction
  DesignDay,                              !- Heating Design Air Flow Method
  ,                                       !- Heating Design Air Flow Rate {m3/s}
  ,                                       !- Heating Maximum Air Flow per Zone Floor Area {m3/s-m2}
  ,                                       !- Heating Maximum Air Flow {m3/s}
  ,                                       !- Heating Maximum Air Flow Fraction
  ,                                       !- Design Zone Air Distribution Effectiveness in Cooling Mode
  ;                                       !- Design Zone Air Distribution Effectiveness in Heating Mode

OS:ZoneHVAC:EquipmentList,
  {8ea957bd-07fa-418a-ae25-f884ea8c20b3}, !- Handle
  {075ba407-e663-486b-9160-83803660834f}, !- Name
  {a3839539-31f4-4c6b-ab3f-701df2289ac4}; !- Thermal Zone

OS:Space,
  {49751888-8375-4bb8-a7aa-e644283aebb3}, !- Handle
  Back_Space,                             !- Name
  {05df0d66-de85-4768-bc73-ac020f3ee5cf}, !- Space Type Name
  ,                                       !- Default Construction Set Name
  ,                                       !- Default Schedule Set Name
  0,                                      !- Direction of Relative North {deg}
  0,                                      !- X Origin {m}
  35.27,                                  !- Y Origin {m}
  0,                                      !- Z Origin {m}
  {96a940e4-ac55-4272-901f-0e5307fc9b25}, !- Building Story Name
  {a3839539-31f4-4c6b-ab3f-701df2289ac4}, !- Thermal Zone Name
  Yes;                                    !- Part of Total Floor Area

OS:ThermostatSetpoint:DualSetpoint,
  {2ac71b90-a3c2-49bd-95a6-cfaacbd2ca2f}, !- Handle
  {69874254-e88a-4e4a-92ea-9ab5b6b80c75}, !- Name
  ,                                       !- Heating Setpoint Temperature Schedule Name
  ;                                       !- Cooling Setpoint Temperature Schedule Name

OS:ScheduleTypeLimits,
  {08edc07e-ad65-4620-8dc0-484d376c7105}, !- Handle
  Fraction,                               !- Name
  0,                                      !- Lower Limit Value {BasedOnField A4}
  1,                                      !- Upper Limit Value {BasedOnField A4}
  CONTINUOUS;                             !- Numeric Type

OS:Surface,
  {8e8134d2-56e3-42fb-aa58-08a19da27692}, !- Handle
  Front_Entry_Wall_East,                  !- Name
  Wall,                                   !- Surface Type
  ,                                       !- Construction Name
  {ee3d74e1-8951-4363-a9b0-dd84b684919f}, !- Space Name
  Surface,                                !- Outside Boundary Condition
  {379ae59c-af21-4db3-86c4-65bead3f52d4}, !- Outside Boundary Condition Object
  NoSun,                                  !- Sun Exposure
  NoWind,                                 !- Wind Exposure
  ,                                       !- View Factor to Ground
  ,                                       !- Number of Vertices
  4, 0, 6.096,                            !- X,Y,Z Vertex 1 {m}
  4, 0, 0,                                !- X,Y,Z Vertex 2 {m}
  4, 3, 0,                                !- X,Y,Z Vertex 3 {m}
  4, 3, 6.096;                            !- X,Y,Z Vertex 4 {m}

OS:ThermalZone,
  {d6c1d6b1-9a49-4143-81b6-2716d83c45fa}, !- Handle
  Front_Entry Thermal Zone,               !- Name
  1,                                      !- Multiplier
  ,                                       !- Ceiling Height {m}
  ,                                       !- Volume {m3}
  ,                                       !- Floor Area {m2}
  ,                                       !- Zone Inside Convection Algorithm
  ,                                       !- Zone Outside Convection Algorithm
  ,                                       !- Zone Conditioning Equipment List Name
  {9f845ecc-343c-41ac-ab59-f0ab349b4a2a}, !- Zone Air Inlet Port List
  {46b0b333-2057-440a-9659-b999f5fd9f70}, !- Zone Air Exhaust Port List
  {53dc3d17-270a-4073-b41c-82c609b06dfe}, !- Zone Air Node Name
  ,                                       !- Zone Return Air Node Name
  ,                                       !- Primary Daylighting Control Name
  ,                                       !- Fraction of Zone Controlled by Primary Daylighting Control
  ,                                       !- Secondary Daylighting Control Name
  ,                                       !- Fraction of Zone Controlled by Secondary Daylighting Control
  ,                                       !- Illuminance Map Name
  {e6cafe06-d304-40cb-a544-89c29d3799ad}, !- Group Rendering Name
  {31126c82-36a6-420b-a585-b6b7c7a28ea1}, !- Thermostat Name
  Yes;                                    !- Use Ideal Air Loads

OS:Node,
  {3770c8d2-bb49-44fc-9a52-469fd2fb9582}, !- Handle
  {d6cefbba-22aa-4070-8dde-6ac6634b221a}, !- Name
  {53dc3d17-270a-4073-b41c-82c609b06dfe}, !- Inlet Port
  ;                                       !- Outlet Port

OS:Connection,
  {53dc3d17-270a-4073-b41c-82c609b06dfe}, !- Handle
  {5972e470-c386-4e7a-b352-c2a15dfe2b9c}, !- Name
  {d6c1d6b1-9a49-4143-81b6-2716d83c45fa}, !- Source Object
  11,                                     !- Outlet Port
  {3770c8d2-bb49-44fc-9a52-469fd2fb9582}, !- Target Object
  2;                                      !- Inlet Port

OS:PortList,
  {9f845ecc-343c-41ac-ab59-f0ab349b4a2a}, !- Handle
  {88817e19-89e9-4e02-8613-788607c04667}, !- Name
  {d6c1d6b1-9a49-4143-81b6-2716d83c45fa}; !- HVAC Component

OS:PortList,
  {46b0b333-2057-440a-9659-b999f5fd9f70}, !- Handle
  {2ac180a8-5c6d-443e-b6fd-cf35c23fbf14}, !- Name
  {d6c1d6b1-9a49-4143-81b6-2716d83c45fa}; !- HVAC Component

OS:Sizing:Zone,
  {3671b8a8-0c57-4230-9f01-3855feb2492a}, !- Handle
  {d6c1d6b1-9a49-4143-81b6-2716d83c45fa}, !- Zone or ZoneList Name
  14,                                     !- Zone Cooling Design Supply Air Temperature {C}
  40,                                     !- Zone Heating Design Supply Air Temperature {C}
  0.0085,                                 !- Zone Cooling Design Supply Air Humidity Ratio {kg-H2O/kg-air}
  0.008,                                  !- Zone Heating Design Supply Air Humidity Ratio {kg-H2O/kg-air}
  ,                                       !- Zone Heating Sizing Factor
  ,                                       !- Zone Cooling Sizing Factor
  DesignDay,                              !- Cooling Design Air Flow Method
  ,                                       !- Cooling Design Air Flow Rate {m3/s}
  ,                                       !- Cooling Minimum Air Flow per Zone Floor Area {m3/s-m2}
  ,                                       !- Cooling Minimum Air Flow {m3/s}
  ,                                       !- Cooling Minimum Air Flow Fraction
  DesignDay,                              !- Heating Design Air Flow Method
  ,                                       !- Heating Design Air Flow Rate {m3/s}
  ,                                       !- Heating Maximum Air Flow per Zone Floor Area {m3/s-m2}
  ,                                       !- Heating Maximum Air Flow {m3/s}
  ,                                       !- Heating Maximum Air Flow Fraction
  ,                                       !- Design Zone Air Distribution Effectiveness in Cooling Mode
  ;                                       !- Design Zone Air Distribution Effectiveness in Heating Mode

OS:ZoneHVAC:EquipmentList,
  {a0c97550-e875-4670-adeb-dfdcabd75cab}, !- Handle
  {4962569b-09a1-44ca-ba4a-ec0973324d2f}, !- Name
  {d6c1d6b1-9a49-4143-81b6-2716d83c45fa}; !- Thermal Zone

OS:Space,
  {ee3d74e1-8951-4363-a9b0-dd84b684919f}, !- Handle
  Front_Entry,                            !- Name
  {bda84dd3-eb99-427d-9584-90471e1cf067}, !- Space Type Name
  ,                                       !- Default Construction Set Name
  ,                                       !- Default Schedule Set Name
  0,                                      !- Direction of Relative North {deg}
  25.135,                                 !- X Origin {m}
  0,                                      !- Y Origin {m}
  0,                                      !- Z Origin {m}
  {96a940e4-ac55-4272-901f-0e5307fc9b25}, !- Building Story Name
  {d6c1d6b1-9a49-4143-81b6-2716d83c45fa}, !- Thermal Zone Name
  Yes;                                    !- Part of Total Floor Area

OS:ThermostatSetpoint:DualSetpoint,
  {6c084a5e-9828-4509-ba10-7a60510b0b1b}, !- Handle
  {1cc4036a-af92-4d4e-b06f-d0089579d156}, !- Name
  ,                                       !- Heating Setpoint Temperature Schedule Name
  ;                                       !- Cooling Setpoint Temperature Schedule Name

OS:Curve:Quadratic,
  {772d9b5e-1a8d-4de0-80fe-234da1880e1a}, !- Handle
  Measured_CoolCStandard10Ton_EIRFFF,     !- Name
  1.192,                                  !- Coefficient1 Constant
  -0.1917,                                !- Coefficient2 x
  0,                                      !- Coefficient3 x**2
  0.776,                                  !- Minimum Value of x {BasedOnField A2}
  1.197;                                  !- Maximum Value of x {BasedOnField A2}

OS:Surface,
  {7443631a-1c48-4102-ad00-0ce2dd3545a0}, !- Handle
  Back_Space_Wall_East,                   !- Name
  Wall,                                   !- Surface Type
  ,                                       !- Construction Name
  {49751888-8375-4bb8-a7aa-e644283aebb3}, !- Space Name
  Outdoors,                               !- Outside Boundary Condition
  ,                                       !- Outside Boundary Condition Object
  SunExposed,                             !- Sun Exposure
  WindExposed,                            !- Wind Exposure
  ,                                       !- View Factor to Ground
  ,                                       !- Number of Vertices
  54.27, 0, 6.096,                        !- X,Y,Z Vertex 1 {m}
  54.27, 0, 0,                            !- X,Y,Z Vertex 2 {m}
  54.27, 7, 0,                            !- X,Y,Z Vertex 3 {m}
  54.27, 7, 6.096;                        !- X,Y,Z Vertex 4 {m}

OS:Surface,
  {e386e711-c152-48fb-b860-72d7740e27ac}, !- Handle
  Core_Retail_Wall_South_3,               !- Name
  Wall,                                   !- Surface Type
  ,                                       !- Construction Name
  {92c91838-1229-4873-a32b-3f57c424f54a}, !- Space Name
  Surface,                                !- Outside Boundary Condition
  {7044c4a6-5798-4ee9-9b5c-af4746d8b8d0}, !- Outside Boundary Condition Object
  NoSun,                                  !- Sun Exposure
  NoWind,                                 !- Wind Exposure
  ,                                       !- View Factor to Ground