
OS:Version,
  {a2100247-04d4-46d0-acd3-f650324a1d48}, !- Handle
  1.5.0;                                  !- Version Identifier

OS:Site,
  {6f34d63f-a8b8-47b6-9747-4cdaf6b192f5}, !- Handle
  USA IL-CHICAGO-OHARE,                   !- Name
  41.77,                                  !- Latitude {deg}
  -87.75,                                 !- Longitude {deg}
  -6,                                     !- Time Zone {hr}
  190,                                    !- Elevation {m}
  City;                                   !- Terrain

OS:SimulationControl,
  {8fa41bba-3250-4d1d-bd37-6534c382e0c0}, !- Handle
  Yes,                                    !- Do Zone Sizing Calculation
  Yes,                                    !- Do System Sizing Calculation
  Yes,                                    !- Do Plant Sizing Calculation
  No,                                     !- Run Simulation for Sizing Periods
  Yes,                                    !- Run Simulation for Weather File Run Periods
  0.04,                                   !- Loads Convergence Tolerance Value
  0.2,                                    !- Temperature Convergence Tolerance Value {deltaC}
  FullInteriorAndExterior,                !- Solar Distribution
  25,                                     !- Maximum Number of Warmup Days
  6;                                      !- Minimum Number of Warmup Days

OS:Meter,
  {be91277a-7c87-47b9-8889-a51811341685}, !- Handle
  InteriorLights:Electricity,             !- Name
  hourly,                                 !- Reporting Frequency
  False,                                  !- Meter File Only
  False;                                  !- Cumulative

OS:ScheduleTypeLimits,
  {df4111bf-a840-4166-87c4-380878efb116}, !- Handle
  Fraction,                               !- Name
  0,                                      !- Lower Limit Value {BasedOnField A4}
  1,                                      !- Upper Limit Value {BasedOnField A4}
  CONTINUOUS;                             !- Numeric Type

OS:ThermalZone,
  {b49639c5-aa73-43e7-b118-ebcc7837810b}, !- Handle
  SMstore7 Thermal Zone,                  !- Name
  1,                                      !- Multiplier
  ,                                       !- Ceiling Height {m}
  ,                                       !- Volume {m3}
  ,                                       !- Floor Area {m2}
  ,                                       !- Zone Inside Convection Algorithm
  ,                                       !- Zone Outside Convection Algorithm
  ,                                       !- Zone Conditioning Equipment List Name
  {750fbc02-31fe-417d-b646-561c6a169ef3}, !- Zone Air Inlet Port List
  {550bd79e-2e9c-4163-abfc-f031b0144b6f}, !- Zone Air Exhaust Port List
  {2fdba26c-5a24-4377-8775-4b59ce0f4d4b}, !- Zone Air Node Name
  ,                                       !- Zone Return Air Node Name
  ,                                       !- Primary Daylighting Control Name
  ,                                       !- Fraction of Zone Controlled by Primary Daylighting Control
  ,                                       !- Secondary Daylighting Control Name
  ,                                       !- Fraction of Zone Controlled by Secondary Daylighting Control
  ,                                       !- Illuminance Map Name
  {d8b9f86a-9946-452b-8cea-59dccb54d05f}, !- Group Rendering Name
  {fa34513b-f299-4d98-875b-6de45f2d8b8b}, !- Thermostat Name
  Yes;                                    !- Use Ideal Air Loads

OS:Node,
  {88527d94-d57a-4633-969b-f6850f448f38}, !- Handle
  {02615882-a7bf-4303-b001-637a3d8ad53d}, !- Name
  {2fdba26c-5a24-4377-8775-4b59ce0f4d4b}, !- Inlet Port
  ;                                       !- Outlet Port

OS:Connection,
  {2fdba26c-5a24-4377-8775-4b59ce0f4d4b}, !- Handle
  {375ac8ce-7e7d-4865-8ebd-7ccc83634adb}, !- Name
  {b49639c5-aa73-43e7-b118-ebcc7837810b}, !- Source Object
  11,                                     !- Outlet Port
  {88527d94-d57a-4633-969b-f6850f448f38}, !- Target Object
  2;                                      !- Inlet Port

OS:PortList,
  {750fbc02-31fe-417d-b646-561c6a169ef3}, !- Handle
  {1d29f86c-2b67-43cb-84ef-083877f3541a}, !- Name
  {b49639c5-aa73-43e7-b118-ebcc7837810b}; !- HVAC Component

OS:PortList,
  {550bd79e-2e9c-4163-abfc-f031b0144b6f}, !- Handle
  {33522edc-2b36-46df-bd31-70ed7680dc3f}, !- Name
  {b49639c5-aa73-43e7-b118-ebcc7837810b}; !- HVAC Component

OS:Sizing:Zone,
  {4b102907-65e4-4a3e-ac5a-ddcb6c23f59a}, !- Handle
  {b49639c5-aa73-43e7-b118-ebcc7837810b}, !- Zone or ZoneList Name
  14,                                     !- Zone Cooling Design Supply Air Temperature {C}
  40,                                     !- Zone Heating Design Supply Air Temperature {C}
  0.0085,                                 !- Zone Cooling Design Supply Air Humidity Ratio {kg-H2O/kg-air}
  0.008,                                  !- Zone Heating Design Supply Air Humidity Ratio {kg-H2O/kg-air}
  ,                                       !- Zone Heating Sizing Factor
  ,                                       !- Zone Cooling Sizing Factor
  DesignDay,                              !- Cooling Design Air Flow Method
  ,                                       !- Cooling Design Air Flow Rate {m3/s}
  ,                                       !- Cooling Minimum Air Flow per Zone Floor Area {m3/s-m2}
  ,                                       !- Cooling Minimum Air Flow {m3/s}
  ,                                       !- Cooling Minimum Air Flow Fraction
  DesignDay,                              !- Heating Design Air Flow Method
  ,                                       !- Heating Design Air Flow Rate {m3/s}
  ,                                       !- Heating Maximum Air Flow per Zone Floor Area {m3/s-m2}
  ,                                       !- Heating Maximum Air Flow {m3/s}
  ,                                       !- Heating Maximum Air Flow Fraction
  ,                                       !- Design Zone Air Distribution Effectiveness in Cooling Mode
  ;                                       !- Design Zone Air Distribution Effectiveness in Heating Mode

OS:ZoneHVAC:EquipmentList,
  {c8246442-d7a2-4a64-8440-741c8ac377a6}, !- Handle
  {5e4861df-934f-40f6-9481-55dcf4bde5fd}, !- Name
  {b49639c5-aa73-43e7-b118-ebcc7837810b}; !- Thermal Zone

OS:Space,
  {1998fef4-45f8-4dfe-9457-c486beca9aa2}, !- Handle
  SMstore7,                               !- Name
  {619c5d40-7b09-4b5c-9bf5-88e8610f23fc}, !- Space Type Name
  ,                                       !- Default Construction Set Name
  ,                                       !- Default Schedule Set Name
  0,                                      !- Direction of Relative North {deg}
  0,                                      !- X Origin {m}
  0,                                      !- Y Origin {m}
  0,                                      !- Z Origin {m}
  {993a31bc-6552-4f44-999e-8ee6e8116b3e}, !- Building Story Name
  {b49639c5-aa73-43e7-b118-ebcc7837810b}, !- Thermal Zone Name
  Yes;                                    !- Part of Total Floor Area

OS:ThermostatSetpoint:DualSetpoint,
  {182b8f5f-39d1-4124-9b21-2e595dd92d61}, !- Handle
  {cc56e2ff-67f7-424d-80d6-972dd99159b7}, !- Name
  ,                                       !- Heating Setpoint Temperature Schedule Name
  ;                                       !- Cooling Setpoint Temperature Schedule Name

OS:ScheduleTypeLimits,
  {bdcb82d4-246c-4d16-a1a3-7be2e244785c}, !- Handle
  Temperature,                            !- Name
  -60,                                    !- Lower Limit Value {BasedOnField A4}
  200,                                    !- Upper Limit Value {BasedOnField A4}
  CONTINUOUS,                             !- Numeric Type
  Temperature;                            !- Unit Type

OS:ScheduleTypeLimits,
  {95e29cfe-58a4-46d0-8bcb-8c536e427282}, !- Handle
  {e12e2a50-909c-4be6-b4eb-6a66f1982c8a}; !- Name

OS:ScheduleTypeLimits,
  {5673f865-3834-4f35-b4d8-e2948bbd3efd}, !- Handle
  ActivityLevel,                          !- Name
  0,                                      !- Lower Limit Value {BasedOnField A4}
  ,                                       !- Upper Limit Value {BasedOnField A4}
  Continuous,                             !- Numeric Type
  ActivityLevel;                          !- Unit Type

OS:ScheduleTypeLimits,
  {cb8e2ac6-3921-4999-8602-e64dcf4bc0ec}, !- Handle
  {a625d91a-03c6-4467-8a1f-b0e0cf3de41a}; !- Name

OS:ScheduleTypeLimits,
  {7cd8eab7-65cd-49c5-a3fd-51842b86207e}, !- Handle
  ClothingInsulation,                     !- Name
  0,                                      !- Lower Limit Value {BasedOnField A4}
  ,                                       !- Upper Limit Value {BasedOnField A4}
  Continuous,                             !- Numeric Type
  ClothingInsulation;                     !- Unit Type

OS:ScheduleTypeLimits,
  {b270a9b6-b475-43b8-9022-f7f8875e6bce}, !- Handle
  {11e45e7a-0c0c-484c-ba00-eae0f102417e}; !- Name

OS:ScheduleTypeLimits,
  {badb75ad-58dd-4993-90cb-e225b826b943}, !- Handle
  Velocity,                               !- Name
  0,                                      !- Lower Limit Value {BasedOnField A4}
  ,                                       !- Upper Limit Value {BasedOnField A4}
  Continuous,                             !- Numeric Type
  Velocity;                               !- Unit Type

OS:ThermostatSetpoint:DualSetpoint,
  {de1b55eb-6984-468c-bece-9f2ebdb70704}, !- Handle
  {497ec139-1e15-4fef-9f8a-9a4a25af0bf0}, !- Name
  ,                                       !- Heating Setpoint Temperature Schedule Name
  ;                                       !- Cooling Setpoint Temperature Schedule Name

OS:SubSurface,
  {c9c62f16-30a4-42b2-b4fd-743d56b58b6a}, !- Handle
  SMstore6_Wall_3_Door,                   !- Name
  Door,                                   !- Sub Surface Type
  ,                                       !- Construction Name
  {1c99fb35-6249-46c0-9dd8-54ae942bb88b}, !- Surface Name
  ,                                       !- Outside Boundary Condition Object
  ,                                       !- View Factor to Ground
  ,                                       !- Shading Control Name
  ,                                       !- Frame and Divider Name
  1,                                      !- Multiplier
  ,                                       !- Number of Vertices
  73.3, 22.86, 2.13,                      !- X,Y,Z Vertex 1 {m}
  73.3, 22.86, 0,                         !- X,Y,Z Vertex 2 {m}
  71.48, 22.86, 0,                        !- X,Y,Z Vertex 3 {m}
  71.48, 22.86, 2.13;                     !- X,Y,Z Vertex 4 {m}

OS:Surface,
  {1c99fb35-6249-46c0-9dd8-54ae942bb88b}, !- Handle
  SMstore6_Wall_3,                        !- Name
  Wall,                                   !- Surface Type
  ,                                       !- Construction Name
  {6f3c2232-a119-4393-94e8-4701d18e9c0a}, !- Space Name
  Outdoors,                               !- Outside Boundary Condition
  ,                                       !- Outside Boundary Condition Object
  SunExposed,                             !- Sun Exposure
  WindExposed,                            !- Wind Exposure
  ,                                       !- View Factor to Ground
  ,                                       !- Number of Vertices
  76.2, 22.86, 5.18,                      !- X,Y,Z Vertex 1 {m}
  76.2, 22.86, 0,                         !- X,Y,Z Vertex 2 {m}
  68.58, 22.86, 0,                        !- X,Y,Z Vertex 3 {m}
  68.58, 22.86, 5.18;                     !- X,Y,Z Vertex 4 {m}

OS:ThermalZone,
  {c4b67f1f-4a6f-4123-b158-eca4752d2e87}, !- Handle
  SMstore6 Thermal Zone,                  !- Name
  1,                                      !- Multiplier
  ,                                       !- Ceiling Height {m}
  ,                                       !- Volume {m3}
  ,                                       !- Floor Area {m2}
  ,                                       !- Zone Inside Convection Algorithm
  ,                                       !- Zone Outside Convection Algorithm
  ,                                       !- Zone Conditioning Equipment List Name
  {88650f20-8755-4ff9-8548-732e4d27fcb2}, !- Zone Air Inlet Port List
  {41b3504f-6f45-40f3-a31c-ebb67cf17773}, !- Zone Air Exhaust Port List
  {dae7d35f-db0f-4708-a4f9-5f04d5aec32f}, !- Zone Air Node Name
  ,                                       !- Zone Return Air Node Name
  ,                                       !- Primary Daylighting Control Name
  ,                                       !- Fraction of Zone Controlled by Primary Daylighting Control
  ,                                       !- Secondary Daylighting Control Name
  ,                                       !- Fraction of Zone Controlled by Secondary Daylighting Control
  ,                                       !- Illuminance Map Name
  {ec4bd0ec-c1be-4a86-8a8b-eb78994a4cd3}, !- Group Rendering Name
  {fa34513b-f299-4d98-875b-6de45f2d8b8b}, !- Thermostat Name
  Yes;                                    !- Use Ideal Air Loads

OS:Node,
  {4a845de9-56e5-449c-88ee-b1652f303f56}, !- Handle
  {9f9642eb-2d28-49ba-8ae2-4cddf3500bb5}, !- Name
  {dae7d35f-db0f-4708-a4f9-5f04d5aec32f}, !- Inlet Port
  ;                                       !- Outlet Port

OS:Connection,
  {dae7d35f-db0f-4708-a4f9-5f04d5aec32f}, !- Handle
  {e4ad5781-87fc-46f3-afc5-f7b3915d7125}, !- Name
  {c4b67f1f-4a6f-4123-b158-eca4752d2e87}, !- Source Object
  11,                                     !- Outlet Port
  {4a845de9-56e5-449c-88ee-b1652f303f56}, !- Target Object
  2;                                      !- Inlet Port

OS:PortList,
  {88650f20-8755-4ff9-8548-732e4d27fcb2}, !- Handle
  {db1668ac-17d8-406b-a58f-dd6130a37b5f}, !- Name
  {c4b67f1f-4a6f-4123-b158-eca4752d2e87}; !- HVAC Component

OS:PortList,
  {41b3504f-6f45-40f3-a31c-ebb67cf17773}, !- Handle
  {3034c2c2-25e4-4f17-8b11-e1d94c680a95}, !- Name
  {c4b67f1f-4a6f-4123-b158-eca4752d2e87}; !- HVAC Component

OS:Sizing:Zone,
  {3e68f3c2-6867-46c1-afa9-b68c718ca61c}, !- Handle
  {c4b67f1f-4a6f-4123-b158-eca4752d2e87}, !- Zone or ZoneList Name
  14,                                     !- Zone Cooling Design Supply Air Temperature {C}
  40,                                     !- Zone Heating Design Supply Air Temperature {C}
  0.0085,                                 !- Zone Cooling Design Supply Air Humidity Ratio {kg-H2O/kg-air}
  0.008,                                  !- Zone Heating Design Supply Air Humidity Ratio {kg-H2O/kg-air}
  ,                                       !- Zone Heating Sizing Factor
  ,                                       !- Zone Cooling Sizing Factor
  DesignDay,                              !- Cooling Design Air Flow Method
  ,                                       !- Cooling Design Air Flow Rate {m3/s}
  ,                                       !- Cooling Minimum Air Flow per Zone Floor Area {m3/s-m2}
  ,                                       !- Cooling Minimum Air Flow {m3/s}
  ,                                       !- Cooling Minimum Air Flow Fraction
  DesignDay,                              !- Heating Design Air Flow Method
  ,                                       !- Heating Design Air Flow Rate {m3/s}
  ,                                       !- Heating Maximum Air Flow per Zone Floor Area {m3/s-m2}
  ,                                       !- Heating Maximum Air Flow {m3/s}
  ,                                       !- Heating Maximum Air Flow Fraction
  ,                                       !- Design Zone Air Distribution Effectiveness in Cooling Mode
  ;                                       !- Design Zone Air Distribution Effectiveness in Heating Mode

OS:ZoneHVAC:EquipmentList,
  {3ba6d106-57a1-4358-a0ae-2ee85eb20a14}, !- Handle
  {b1619733-f65f-432a-ae39-cb8a7d9091d8}, !- Name
  {c4b67f1f-4a6f-4123-b158-eca4752d2e87}; !- Thermal Zone

OS:Space,
  {6f3c2232-a119-4393-94e8-4701d18e9c0a}, !- Handle
  SMstore6,                               !- Name
  {619c5d40-7b09-4b5c-9bf5-88e8610f23fc}, !- Space Type Name
  ,                                       !- Default Construction Set Name
  ,                                       !- Default Schedule Set Name
  0,                                      !- Direction of Relative North {deg}
  0,                                      !- X Origin {m}
  0,                                      !- Y Origin {m}
  0,                                      !- Z Origin {m}
  {993a31bc-6552-4f44-999e-8ee6e8116b3e}, !- Building Story Name
  {c4b67f1f-4a6f-4123-b158-eca4752d2e87}, !- Thermal Zone Name
  Yes;                                    !- Part of Total Floor Area

OS:Surface,
  {aae2ba4e-1ad8-4ed1-b7ba-eea0f97bd648}, !- Handle
  SMstore2_Roof,                          !- Name
  RoofCeiling,                            !- Surface Type
  ,                                       !- Construction Name
  {773d22e6-8d35-427b-9fcf-dd024ae7490f}, !- Space Name
  Outdoors,                               !- Outside Boundary Condition
  ,                                       !- Outside Boundary Condition Object
  SunExposed,                             !- Sun Exposure
  WindExposed,                            !- Wind Exposure
  ,                                       !- View Factor to Ground
  ,                                       !- Number of Vertices
  30.48, 0, 5.18,                         !- X,Y,Z Vertex 1 {m}
  30.48, 22.86, 5.18,                     !- X,Y,Z Vertex 2 {m}
  22.86, 22.86, 5.18,                     !- X,Y,Z Vertex 3 {m}
  22.86, 0, 5.18;                         !- X,Y,Z Vertex 4 {m}

OS:ThermalZone,
  {e256992a-64fd-4935-a3ab-156f795f9ede}, !- Handle
  SMstore2 Thermal Zone,                  !- Name
  1,                                      !- Multiplier
  ,                                       !- Ceiling Height {m}
  ,                                       !- Volume {m3}
  ,                                       !- Floor Area {m2}
  ,                                       !- Zone Inside Convection Algorithm
  ,                                       !- Zone Outside Convection Algorithm
  ,                                       !- Zone Conditioning Equipment List Name
  {b374d96c-dcf1-4f19-819c-ecaa6414c519}, !- Zone Air Inlet Port List
  {7545aea3-10dc-46bb-bb13-706b49bd6255}, !- Zone Air Exhaust Port List
  {d6a4f31d-d504-410f-ad11-002344e64d23}, !- Zone Air Node Name
  ,                                       !- Zone Return Air Node Name
  ,                                       !- Primary Daylighting Control Name
  ,                                       !- Fraction of Zone Controlled by Primary Daylighting Control
  ,                                       !- Secondary Daylighting Control Name
  ,                                       !- Fraction of Zone Controlled by Secondary Daylighting Control
  ,                                       !- Illuminance Map Name
  {fd84b957-1270-4827-8e10-3ddbd0e478db}, !- Group Rendering Name
  {fa34513b-f299-4d98-875b-6de45f2d8b8b}, !- Thermostat Name
  Yes;                                    !- Use Ideal Air Loads

OS:Node,
  {5bac6059-92f8-463e-aa59-1d09fc44afbc}, !- Handle
  {bc57767e-510b-4748-a92f-7bbfbac59338}, !- Name
  {d6a4f31d-d504-410f-ad11-002344e64d23}, !- Inlet Port
  ;                                       !- Outlet Port

OS:Connection,
  {d6a4f31d-d504-410f-ad11-002344e64d23}, !- Handle
  {c71d3d02-a8de-44a2-aabc-b8a312977319}, !- Name
  {e256992a-64fd-4935-a3ab-156f795f9ede}, !- Source Object
  11,                                     !- Outlet Port
  {5bac6059-92f8-463e-aa59-1d09fc44afbc}, !- Target Object
  2;                                      !- Inlet Port

OS:PortList,
  {b374d96c-dcf1-4f19-819c-ecaa6414c519}, !- Handle
  {3316f94f-75cc-45fe-b2be-85c8ec4fe340}, !- Name
  {e256992a-64fd-4935-a3ab-156f795f9ede}; !- HVAC Component

OS:PortList,
  {7545aea3-10dc-46bb-bb13-706b49bd6255}, !- Handle
  {3ed94c66-d04a-4ef2-9372-e9a6982f812a}, !- Name
  {e256992a-64fd-4935-a3ab-156f795f9ede}; !- HVAC Component

OS:Sizing:Zone,
  {6e561158-577b-444c-9f5d-28ca4eeb64d4}, !- Handle
  {e256992a-64fd-4935-a3ab-156f795f9ede}, !- Zone or ZoneList Name
  14,                                     !- Zone Cooling Design Supply Air Temperature {C}
  40,                                     !- Zone Heating Design Supply Air Temperature {C}
  0.0085,                                 !- Zone Cooling Design Supply Air Humidity Ratio {kg-H2O/kg-air}
  0.008,                                  !- Zone Heating Design Supply Air Humidity Ratio {kg-H2O/kg-air}
  ,                                       !- Zone Heating Sizing Factor
  ,                                       !- Zone Cooling Sizing Factor
  DesignDay,                              !- Cooling Design Air Flow Method
  ,                                       !- Cooling Design Air Flow Rate {m3/s}
  ,                                       !- Cooling Minimum Air Flow per Zone Floor Area {m3/s-m2}
  ,                                       !- Cooling Minimum Air Flow {m3/s}
  ,                                       !- Cooling Minimum Air Flow Fraction
  DesignDay,                              !- Heating Design Air Flow Method
  ,                                       !- Heating Design Air Flow Rate {m3/s}
  ,                                       !- Heating Maximum Air Flow per Zone Floor Area {m3/s-m2}
  ,                                       !- Heating Maximum Air Flow {m3/s}
  ,                                       !- Heating Maximum Air Flow Fraction
  ,                                       !- Design Zone Air Distribution Effectiveness in Cooling Mode
  ;                                       !- Design Zone Air Distribution Effectiveness in Heating Mode

OS:ZoneHVAC:EquipmentList,
  {fd10de43-b2f9-4882-a368-38647f384d48}, !- Handle
  {2be68943-ba89-49a7-9b2b-f1e4cb941b83}, !- Name
  {e256992a-64fd-4935-a3ab-156f795f9ede}; !- Thermal Zone

OS:Space,
  {773d22e6-8d35-427b-9fcf-dd024ae7490f}, !- Handle
  SMstore2,                               !- Name
  {619c5d40-7b09-4b5c-9bf5-88e8610f23fc}, !- Space Type Name
  ,                                       !- Default Construction Set Name
  ,                                       !- Default Schedule Set Name
  0,                                      !- Direction of Relative North {deg}
  0,                                      !- X Origin {m}
  0,                                      !- Y Origin {m}
  0,                                      !- Z Origin {m}
  {993a31bc-6552-4f44-999e-8ee6e8116b3e}, !- Building Story Name
  {e256992a-64fd-4935-a3ab-156f795f9ede}, !- Thermal Zone Name
  Yes;                                    !- Part of Total Floor Area

OS:ThermostatSetpoint:DualSetpoint,
  {1fc141aa-7765-4672-ba0c-364570948f70}, !- Handle
  {9e21607e-0a77-4ea7-84a7-f25b07e60292}, !- Name
  ,                                       !- Heating Setpoint Temperature Schedule Name
  ;                                       !- Cooling Setpoint Temperature Schedule Name

OS:ThermalZone,
  {77b95286-ce2b-4398-b41c-793f146a3330}, !- Handle
  SMstore4 Thermal Zone,                  !- Name
  1,                                      !- Multiplier
  ,                                       !- Ceiling Height {m}
  ,                                       !- Volume {m3}
  ,                                       !- Floor Area {m2}
  ,                                       !- Zone Inside Convection Algorithm
  ,                                       !- Zone Outside Convection Algorithm
  ,                                       !- Zone Conditioning Equipment List Name
  {a3411013-712c-457d-9d18-42afbd816195}, !- Zone Air Inlet Port List
  {7928076d-ebe6-4b6f-b7ab-87ae38ebfa3c}, !- Zone Air Exhaust Port List
  {cc618358-413d-488c-a371-6a651e2210da}, !- Zone Air Node Name
  ,                                       !- Zone Return Air Node Name
  ,                                       !- Primary Daylighting Control Name
  ,                                       !- Fraction of Zone Controlled by Primary Daylighting Control
  ,                                       !- Secondary Daylighting Control Name
  ,                                       !- Fraction of Zone Controlled by Secondary Daylighting Control
  ,                                       !- Illuminance Map Name
  {3a588342-96cf-46bd-8f46-f26a022f0289}, !- Group Rendering Name
  {fa34513b-f299-4d98-875b-6de45f2d8b8b}, !- Thermostat Name
  Yes;                                    !- Use Ideal Air Loads

OS:Node,
  {116eb67f-12c8-46fb-8f7f-012d325fdce7}, !- Handle
  {3ea68b48-4baa-44b1-b444-527b28ac047d}, !- Name
  {cc618358-413d-488c-a371-6a651e2210da}, !- Inlet Port
  ;                                       !- Outlet Port

OS:Connection,
  {cc618358-413d-488c-a371-6a651e2210da}, !- Handle
  {05b2cec3-db8a-41b2-a794-22787524fc71}, !- Name
  {77b95286-ce2b-4398-b41c-793f146a3330}, !- Source Object
  11,                                     !- Outlet Port
  {116eb67f-12c8-46fb-8f7f-012d325fdce7}, !- Target Object
  2;                                      !- Inlet Port

OS:PortList,
  {a3411013-712c-457d-9d18-42afbd816195}, !- Handle
  {000b96d7-127d-4f80-ac59-af45aeed9888}, !- Name
  {77b95286-ce2b-4398-b41c-793f146a3330}; !- HVAC Component

OS:PortList,
  {7928076d-ebe6-4b6f-b7ab-87ae38ebfa3c}, !- Handle
  {b6b41972-dd82-429e-ac5c-60943407b752}, !- Name
  {77b95286-ce2b-4398-b41c-793f146a3330}; !- HVAC Component

OS:Sizing:Zone,
  {4f0a9892-f18a-4787-b06e-ccafa2c6f733}, !- Handle
  {77b95286-ce2b-4398-b41c-793f146a3330}, !- Zone or ZoneList Name
  14,                                     !- Zone Cooling Design Supply Air Temperature {C}
  40,                                     !- Zone Heating Design Supply Air Temperature {C}
  0.0085,                                 !- Zone Cooling Design Supply Air Humidity Ratio {kg-H2O/kg-air}
  0.008,                                  !- Zone Heating Design Supply Air Humidity Ratio {kg-H2O/kg-air}
  ,                                       !- Zone Heating Sizing Factor
  ,                                       !- Zone Cooling Sizing Factor
  DesignDay,                              !- Cooling Design Air Flow Method
  ,                                       !- Cooling Design Air Flow Rate {m3/s}
  ,                                       !- Cooling Minimum Air Flow per Zone Floor Area {m3/s-m2}
  ,                                       !- Cooling Minimum Air Flow {m3/s}
  ,                                       !- Cooling Minimum Air Flow Fraction
  DesignDay,                              !- Heating Design Air Flow Method
  ,                                       !- Heating Design Air Flow Rate {m3/s}
  ,                                       !- Heating Maximum Air Flow per Zone Floor Area {m3/s-m2}
  ,                                       !- Heating Maximum Air Flow {m3/s}
  ,                                       !- Heating Maximum Air Flow Fraction
  ,                                       !- Design Zone Air Distribution Effectiveness in Cooling Mode
  ;                                       !- Design Zone Air Distribution Effectiveness in Heating Mode

OS:ZoneHVAC:EquipmentList,
  {5e71392a-aff6-4be7-a89d-e188ef88206d}, !- Handle
  {9bab1144-819c-46fa-a303-34c6ea4d434c}, !- Name
  {77b95286-ce2b-4398-b41c-793f146a3330}; !- Thermal Zone

OS:Space,
  {6b392b80-a571-477e-ab0d-2d10765dcb10}, !- Handle
  SMstore4,                               !- Name
  {619c5d40-7b09-4b5c-9bf5-88e8610f23fc}, !- Space Type Name
  ,                                       !- Default Construction Set Name
  ,                                       !- Default Schedule Set Name
  0,                                      !- Direction of Relative North {deg}
  0,                                      !- X Origin {m}
  0,                                      !- Y Origin {m}
  0,                                      !- Z Origin {m}
  {993a31bc-6552-4f44-999e-8ee6e8116b3e}, !- Building Story Name
  {77b95286-ce2b-4398-b41c-793f146a3330}, !- Thermal Zone Name
  Yes;                                    !- Part of Total Floor Area

OS:ThermostatSetpoint:DualSetpoint,
  {bff6795c-d8ce-458f-9c6d-6f1c0fd9f456}, !- Handle
  {d709ed57-fe12-4fbb-94cf-240a85e5f259}, !- Name
  ,                                       !- Heating Setpoint Temperature Schedule Name
  ;                                       !- Cooling Setpoint Temperature Schedule Name

OS:Curve:Biquadratic,
  {764d5767-e4d3-444d-843d-66a03da0363f}, !- Handle
  Cool-EIR-fT,                            !- Name
  0.28687133,                             !- Coefficient1 Constant
  0.023902164,                            !- Coefficient2 x
  -0.000810648,                           !- Coefficient3 x**2
  0.013458546,                            !- Coefficient4 y
  0.0003389364,                           !- Coefficient5 y**2
  -0.0004870044,                          !- Coefficient6 x*y
  -100,                                   !- Minimum Value of x {BasedOnField A2}
  100,                                    !- Maximum Value of x {BasedOnField A2}
  -100,                                   !- Minimum Value of y {BasedOnField A3}
  100;                                    !- Maximum Value of y {BasedOnField A3}

OS:Meter,
  {9aa8fcd9-0e6a-4286-8f65-3f8ad48c4d7b}, !- Handle
  Cooling:Electricity,                    !- Name
  hourly,                                 !- Reporting Frequency
  False,                                  !- Meter File Only
  False;                                  !- Cumulative

OS:ScheduleTypeLimits,
  {750394cf-b417-4b8e-b3d4-308e48636b6b}, !- Handle
  Control Type,                           !- Name
  0,                                      !- Lower Limit Value {BasedOnField A4}
  4,                                      !- Upper Limit Value {BasedOnField A4}
  DISCRETE,                               !- Numeric Type