
OS:Version,
  {7fbd220c-3458-4752-b00d-2efda64102f4}, !- Handle
  1.5.0;                                  !- Version Identifier

OS:Site,
  {6e55b886-0cf4-48fa-87be-eb8ef3cbe9c4}, !- Handle
  USA IL-CHICAGO-OHARE,                   !- Name
  41.77,                                  !- Latitude {deg}
  -87.75,                                 !- Longitude {deg}
  -6,                                     !- Time Zone {hr}
  190,                                    !- Elevation {m}
  City;                                   !- Terrain

OS:SimulationControl,
  {93247f5c-67c3-4a92-82c2-307b70458dcc}, !- Handle
  Yes,                                    !- Do Zone Sizing Calculation
  Yes,                                    !- Do System Sizing Calculation
  Yes,                                    !- Do Plant Sizing Calculation
  No,                                     !- Run Simulation for Sizing Periods
  Yes,                                    !- Run Simulation for Weather File Run Periods
  0.04,                                   !- Loads Convergence Tolerance Value
  0.2,                                    !- Temperature Convergence Tolerance Value {deltaC}
  FullInteriorAndExterior,                !- Solar Distribution
  25,                                     !- Maximum Number of Warmup Days
  6;                                      !- Minimum Number of Warmup Days

OS:Surface,
  {7c14ae2c-6bcc-4daa-bb78-99b3d94c3816}, !- Handle
  Bakery_Wall_South,                      !- Name
  Wall,                                   !- Surface Type
  ,                                       !- Construction Name
  {6714982c-ce99-4e05-b8e4-47ef2da93f54}, !- Space Name
  Outdoors,                               !- Outside Boundary Condition
  ,                                       !- Outside Boundary Condition Object
  SunExposed,                             !- Sun Exposure
  WindExposed,                            !- Wind Exposure
  ,                                       !- View Factor to Ground
  ,                                       !- Number of Vertices
  26.8875, -30.2429, 6.096,               !- X,Y,Z Vertex 1 {m}
  26.8875, -30.2429, 0,                   !- X,Y,Z Vertex 2 {m}
  36.7863, -30.2429, 0,                   !- X,Y,Z Vertex 3 {m}
  36.7863, -30.2429, 6.096;               !- X,Y,Z Vertex 4 {m}

OS:ThermalZone,
  {08290e97-ade9-4a2c-a14d-d603f8569c31}, !- Handle
  Bakery Thermal Zone,                    !- Name
  1,                                      !- Multiplier
  ,                                       !- Ceiling Height {m}
  ,                                       !- Volume {m3}
  ,                                       !- Floor Area {m2}
  ,                                       !- Zone Inside Convection Algorithm
  ,                                       !- Zone Outside Convection Algorithm
  ,                                       !- Zone Conditioning Equipment List Name
  {115ddcec-e503-470f-82fe-9304ac319e70}, !- Zone Air Inlet Port List
  {495d9fb6-b490-4ba8-93bb-7686d9d0c031}, !- Zone Air Exhaust Port List
  {84bde2dc-4b5d-457e-9a3f-07404c0a1ad0}, !- Zone Air Node Name
  ,                                       !- Zone Return Air Node Name
  ,                                       !- Primary Daylighting Control Name
  ,                                       !- Fraction of Zone Controlled by Primary Daylighting Control
  ,                                       !- Secondary Daylighting Control Name
  ,                                       !- Fraction of Zone Controlled by Secondary Daylighting Control
  ,                                       !- Illuminance Map Name
  {3b3e6750-3c71-4bb2-978a-1b0bd793095b}, !- Group Rendering Name
  {3c9370f9-29fd-4039-99de-ad416d0aeab5}, !- Thermostat Name
  Yes;                                    !- Use Ideal Air Loads

OS:Node,
  {baa3eaba-ee1f-428d-a9a7-355b1a18c6d5}, !- Handle
  {5abf7bf2-159e-4916-8354-16950c0ef6f9}, !- Name
  {84bde2dc-4b5d-457e-9a3f-07404c0a1ad0}, !- Inlet Port
  ;                                       !- Outlet Port

OS:Connection,
  {84bde2dc-4b5d-457e-9a3f-07404c0a1ad0}, !- Handle
  {fe0f5bb5-0235-42d0-9139-8d9723414275}, !- Name
  {08290e97-ade9-4a2c-a14d-d603f8569c31}, !- Source Object
  11,                                     !- Outlet Port
  {baa3eaba-ee1f-428d-a9a7-355b1a18c6d5}, !- Target Object
  2;                                      !- Inlet Port

OS:PortList,
  {115ddcec-e503-470f-82fe-9304ac319e70}, !- Handle
  {6468a1b1-c0d6-4472-8e2e-c8dd9e54c879}, !- Name
  {08290e97-ade9-4a2c-a14d-d603f8569c31}; !- HVAC Component

OS:PortList,
  {495d9fb6-b490-4ba8-93bb-7686d9d0c031}, !- Handle
  {0ed9cff5-82fb-4128-b517-bb86730d1a22}, !- Name
  {08290e97-ade9-4a2c-a14d-d603f8569c31}; !- HVAC Component

OS:Sizing:Zone,
  {e6a10e26-cc66-45ab-b36e-af7c16397725}, !- Handle
  {08290e97-ade9-4a2c-a14d-d603f8569c31}, !- Zone or ZoneList Name
  14,                                     !- Zone Cooling Design Supply Air Temperature {C}
  40,                                     !- Zone Heating Design Supply Air Temperature {C}
  0.0085,                                 !- Zone Cooling Design Supply Air Humidity Ratio {kg-H2O/kg-air}
  0.008,                                  !- Zone Heating Design Supply Air Humidity Ratio {kg-H2O/kg-air}
  ,                                       !- Zone Heating Sizing Factor
  ,                                       !- Zone Cooling Sizing Factor
  DesignDay,                              !- Cooling Design Air Flow Method
  ,                                       !- Cooling Design Air Flow Rate {m3/s}
  ,                                       !- Cooling Minimum Air Flow per Zone Floor Area {m3/s-m2}
  ,                                       !- Cooling Minimum Air Flow {m3/s}
  ,                                       !- Cooling Minimum Air Flow Fraction
  DesignDay,                              !- Heating Design Air Flow Method
  ,                                       !- Heating Design Air Flow Rate {m3/s}
  ,                                       !- Heating Maximum Air Flow per Zone Floor Area {m3/s-m2}
  ,                                       !- Heating Maximum Air Flow {m3/s}
  ,                                       !- Heating Maximum Air Flow Fraction
  ,                                       !- Design Zone Air Distribution Effectiveness in Cooling Mode
  ;                                       !- Design Zone Air Distribution Effectiveness in Heating Mode

OS:ZoneHVAC:EquipmentList,
  {88f1cf69-df37-445c-85d6-8187cd5f49a8}, !- Handle
  {0c23deac-e77d-4acc-8ad8-e58a0c482967}, !- Name
  {08290e97-ade9-4a2c-a14d-d603f8569c31}; !- Thermal Zone

OS:Space,
  {6714982c-ce99-4e05-b8e4-47ef2da93f54}, !- Handle
  Bakery,                                 !- Name
  {251196d7-e2a3-4093-ab8c-92478557f7a1}, !- Space Type Name
  ,                                       !- Default Construction Set Name
  ,                                       !- Default Schedule Set Name
  0,                                      !- Direction of Relative North {deg}
  0,                                      !- X Origin {m}
  0,                                      !- Y Origin {m}
  0,                                      !- Z Origin {m}
  {39a5df78-1808-4188-9dee-7897d745bb96}, !- Building Story Name
  {08290e97-ade9-4a2c-a14d-d603f8569c31}, !- Thermal Zone Name
  Yes;                                    !- Part of Total Floor Area

OS:ThermostatSetpoint:DualSetpoint,
  {e21eac8e-c82e-455b-9766-97c74f014cd3}, !- Handle
  {77bdebc7-bdc4-4093-bef2-1c3e9dea8c68}, !- Name
  ,                                       !- Heating Setpoint Temperature Schedule Name
  ;                                       !- Cooling Setpoint Temperature Schedule Name

OS:ScheduleTypeLimits,
  {856d9ce7-6713-4056-95ce-bc121c4e7979}, !- Handle
  Temperature,                            !- Name
  -60,                                    !- Lower Limit Value {BasedOnField A4}
  200,                                    !- Upper Limit Value {BasedOnField A4}
  CONTINUOUS,                             !- Numeric Type
  Temperature;                            !- Unit Type

OS:ThermostatSetpoint:DualSetpoint,
  {9a0a1b21-326d-4b90-9774-c548b6428fd8}, !- Handle
  {5030a617-d727-40be-afca-2e29ed845523}, !- Name
  ,                                       !- Heating Setpoint Temperature Schedule Name
  ;                                       !- Cooling Setpoint Temperature Schedule Name

OS:Surface,
  {db8ee8f2-6bd1-40cf-8ec3-5f2b828ca91b}, !- Handle
  Bakery_Wall__2,                         !- Name
  Wall,                                   !- Surface Type
  ,                                       !- Construction Name
  {6714982c-ce99-4e05-b8e4-47ef2da93f54}, !- Space Name
  Outdoors,                               !- Outside Boundary Condition
  ,                                       !- Outside Boundary Condition Object
  SunExposed,                             !- Sun Exposure
  WindExposed,                            !- Wind Exposure
  ,                                       !- View Factor to Ground
  ,                                       !- Number of Vertices
  36.7863, -30.2429, 6.096,               !- X,Y,Z Vertex 1 {m}
  36.7863, -30.2429, 0,                   !- X,Y,Z Vertex 2 {m}
  36.7863, -9.1251, 0,                    !- X,Y,Z Vertex 3 {m}
  36.7863, -9.1251, 6.096;                !- X,Y,Z Vertex 4 {m}

OS:Curve:Biquadratic,
  {c8a5ded9-4c14-41d0-918e-d958a9cf3190}, !- Handle
  Cool-EIR-fT,                            !- Name
  0.28687133,                             !- Coefficient1 Constant
  0.023902164,                            !- Coefficient2 x
  -0.000810648,                           !- Coefficient3 x**2
  0.013458546,                            !- Coefficient4 y
  0.0003389364,                           !- Coefficient5 y**2
  -0.0004870044,                          !- Coefficient6 x*y
  -100,                                   !- Minimum Value of x {BasedOnField A2}
  100,                                    !- Maximum Value of x {BasedOnField A2}
  -100,                                   !- Minimum Value of y {BasedOnField A3}
  100;                                    !- Maximum Value of y {BasedOnField A3}

OS:Curve:Cubic,
  {114a5d1c-62f0-4710-8bb4-2d50fe0e3b78}, !- Handle
  ConstantCubic,                          !- Name
  1,                                      !- Coefficient1 Constant
  0,                                      !- Coefficient2 x
  0,                                      !- Coefficient3 x**2
  0,                                      !- Coefficient4 x**3
  -100,                                   !- Minimum Value of x {BasedOnField A2}
  100;                                    !- Maximum Value of x {BasedOnField A2}

OS:ThermalZone,
  {d14b0081-e944-46f5-823f-be2e07ce8a43}, !- Handle
  Deli Thermal Zone,                      !- Name
  1,                                      !- Multiplier
  ,                                       !- Ceiling Height {m}
  ,                                       !- Volume {m3}
  ,                                       !- Floor Area {m2}
  ,                                       !- Zone Inside Convection Algorithm
  ,                                       !- Zone Outside Convection Algorithm
  ,                                       !- Zone Conditioning Equipment List Name
  {b1c69044-b91d-44ef-bbeb-b3d78ec64d3c}, !- Zone Air Inlet Port List
  {b3afbcbc-fb2c-473e-8cb5-098e6c5fbe1b}, !- Zone Air Exhaust Port List
  {b59746b7-e9be-4da4-a7b1-e9ea4c81ecd4}, !- Zone Air Node Name
  ,                                       !- Zone Return Air Node Name
  ,                                       !- Primary Daylighting Control Name
  ,                                       !- Fraction of Zone Controlled by Primary Daylighting Control
  ,                                       !- Secondary Daylighting Control Name
  ,                                       !- Fraction of Zone Controlled by Secondary Daylighting Control
  ,                                       !- Illuminance Map Name
  {af1d995d-1ec0-43a1-8cac-27d3027e9a79}, !- Group Rendering Name
  {3c9370f9-29fd-4039-99de-ad416d0aeab5}, !- Thermostat Name
  Yes;                                    !- Use Ideal Air Loads

OS:Node,
  {0b863693-3fea-4549-b97d-272498868451}, !- Handle
  {0e878cbe-6647-4966-9fbc-501529bf4d9a}, !- Name
  {b59746b7-e9be-4da4-a7b1-e9ea4c81ecd4}, !- Inlet Port
  ;                                       !- Outlet Port

OS:Connection,
  {b59746b7-e9be-4da4-a7b1-e9ea4c81ecd4}, !- Handle
  {6c08af17-b0a6-4148-839c-89d9ec4bd45f}, !- Name
  {d14b0081-e944-46f5-823f-be2e07ce8a43}, !- Source Object
  11,                                     !- Outlet Port
  {0b863693-3fea-4549-b97d-272498868451}, !- Target Object
  2;                                      !- Inlet Port

OS:PortList,
  {b1c69044-b91d-44ef-bbeb-b3d78ec64d3c}, !- Handle
  {dd8aa15a-da4a-4041-9b3a-be9e7dbd9826}, !- Name
  {d14b0081-e944-46f5-823f-be2e07ce8a43}; !- HVAC Component

OS:PortList,
  {b3afbcbc-fb2c-473e-8cb5-098e6c5fbe1b}, !- Handle
  {ce1f4ae1-7cab-458e-bcb1-c97c2b5371b5}, !- Name
  {d14b0081-e944-46f5-823f-be2e07ce8a43}; !- HVAC Component

OS:Sizing:Zone,
  {44351a10-d75a-4e34-9877-f80112b6e2b5}, !- Handle
  {d14b0081-e944-46f5-823f-be2e07ce8a43}, !- Zone or ZoneList Name
  14,                                     !- Zone Cooling Design Supply Air Temperature {C}
  40,                                     !- Zone Heating Design Supply Air Temperature {C}
  0.0085,                                 !- Zone Cooling Design Supply Air Humidity Ratio {kg-H2O/kg-air}
  0.008,                                  !- Zone Heating Design Supply Air Humidity Ratio {kg-H2O/kg-air}
  ,                                       !- Zone Heating Sizing Factor
  ,                                       !- Zone Cooling Sizing Factor
  DesignDay,                              !- Cooling Design Air Flow Method
  ,                                       !- Cooling Design Air Flow Rate {m3/s}
  ,                                       !- Cooling Minimum Air Flow per Zone Floor Area {m3/s-m2}
  ,                                       !- Cooling Minimum Air Flow {m3/s}
  ,                                       !- Cooling Minimum Air Flow Fraction
  DesignDay,                              !- Heating Design Air Flow Method
  ,                                       !- Heating Design Air Flow Rate {m3/s}
  ,                                       !- Heating Maximum Air Flow per Zone Floor Area {m3/s-m2}
  ,                                       !- Heating Maximum Air Flow {m3/s}
  ,                                       !- Heating Maximum Air Flow Fraction
  ,                                       !- Design Zone Air Distribution Effectiveness in Cooling Mode
  ;                                       !- Design Zone Air Distribution Effectiveness in Heating Mode

OS:ZoneHVAC:EquipmentList,
  {aa6778bb-e273-401d-ae4e-e0a1ec19f816}, !- Handle
  {5371839e-36cc-4aff-a014-a29c93f8ad89}, !- Name
  {d14b0081-e944-46f5-823f-be2e07ce8a43}; !- Thermal Zone

OS:Space,
  {07adfee6-2a14-41a6-b719-3bd87e18ef5b}, !- Handle
  Deli,                                   !- Name
  {251196d7-e2a3-4093-ab8c-92478557f7a1}, !- Space Type Name
  ,                                       !- Default Construction Set Name
  ,                                       !- Default Schedule Set Name
  0,                                      !- Direction of Relative North {deg}
  0,                                      !- X Origin {m}
  0,                                      !- Y Origin {m}
  0,                                      !- Z Origin {m}
  {39a5df78-1808-4188-9dee-7897d745bb96}, !- Building Story Name
  {d14b0081-e944-46f5-823f-be2e07ce8a43}, !- Thermal Zone Name
  Yes;                                    !- Part of Total Floor Area

OS:ThermostatSetpoint:DualSetpoint,
  {a4175ed2-6e0a-49d0-9d71-bbf9f1371ee4}, !- Handle
  {57734c52-181e-4957-93a3-127fb969e9a2}, !- Name
  ,                                       !- Heating Setpoint Temperature Schedule Name
  ;                                       !- Cooling Setpoint Temperature Schedule Name

OS:ScheduleTypeLimits,
  {b97e0496-6d32-4c85-9fca-113a0305bc2b}, !- Handle
  Fraction,                               !- Name
  0,                                      !- Lower Limit Value {BasedOnField A4}
  1,                                      !- Upper Limit Value {BasedOnField A4}
  CONTINUOUS;                             !- Numeric Type

OS:ScheduleTypeLimits,
  {f31bbf01-ece2-48f4-9d14-b2ae49ff42b1}, !- Handle
  {20730df5-95fb-453f-b564-a4a38dfd4a74}; !- Name

OS:ScheduleTypeLimits,
  {0397d27b-e60d-4c5c-84ca-dcee193ba5da}, !- Handle
  ActivityLevel,                          !- Name
  0,                                      !- Lower Limit Value {BasedOnField A4}
  ,                                       !- Upper Limit Value {BasedOnField A4}
  Continuous,                             !- Numeric Type
  ActivityLevel;                          !- Unit Type

OS:ScheduleTypeLimits,
  {4edc58ec-660c-48bf-94de-0fbf4e381802}, !- Handle
  {bf78b0c5-b973-41f3-923b-6a8b0c944b67}; !- Name

OS:ScheduleTypeLimits,
  {648a82a5-d3ab-4da4-b4dd-d14686ba2b4a}, !- Handle
  ClothingInsulation,                     !- Name
  0,                                      !- Lower Limit Value {BasedOnField A4}
  ,                                       !- Upper Limit Value {BasedOnField A4}
  Continuous,                             !- Numeric Type
  ClothingInsulation;                     !- Unit Type

OS:ScheduleTypeLimits,
  {942497b7-6258-4f4d-92c0-d8124ee06b35}, !- Handle
  {678b763d-0836-462a-bad5-cead2abd9d27}; !- Name

OS:ScheduleTypeLimits,
  {e712a14b-e300-410d-9e44-e0c16108cdf7}, !- Handle
  Velocity,                               !- Name
  0,                                      !- Lower Limit Value {BasedOnField A4}
  ,                                       !- Upper Limit Value {BasedOnField A4}
  Continuous,                             !- Numeric Type
  Velocity;                               !- Unit Type

OS:Surface,
  {de73b220-4f32-4143-b611-8ca0d3ebfe24}, !- Handle
  Deli_Wall_West,                         !- Name
  Wall,                                   !- Surface Type
  ,                                       !- Construction Name
  {07adfee6-2a14-41a6-b719-3bd87e18ef5b}, !- Space Name
  Surface,                                !- Outside Boundary Condition
  {e0d03b5d-bb0e-47e4-bf5b-855e9271d9d5}, !- Outside Boundary Condition Object
  NoSun,                                  !- Sun Exposure
  NoWind,                                 !- Wind Exposure
  ,                                       !- View Factor to Ground
  ,                                       !- Number of Vertices
  26.8875, 13.5765, 6.096,                !- X,Y,Z Vertex 1 {m}
  26.8875, 13.5765, 0,                    !- X,Y,Z Vertex 2 {m}
  26.8875, -9.1251, 0,                    !- X,Y,Z Vertex 3 {m}
  26.8875, -9.1251, 6.096;                !- X,Y,Z Vertex 4 {m}

OS:Curve:Cubic,
  {2f5a587e-5ced-4817-8ff0-9851031b7fda}, !- Handle
  Sales_Case:7_WALKINFREEZERSingleShelfHorizontal_LatentEnergyMult, !- Name
  0.020376,                               !- Coefficient1 Constant
  0.00024378,                             !- Coefficient2 x
  1.14e-005,                              !- Coefficient3 x**2
  1.811e-007,                             !- Coefficient4 x**3
  -35,                                    !- Minimum Value of x {BasedOnField A2}
  20;                                     !- Maximum Value of x {BasedOnField A2}

OS:Surface,
  {62744154-a276-491c-a2e2-1adde074a28c}, !- Handle
  Sales_Wall_North,                       !- Name
  Wall,                                   !- Surface Type
  ,                                       !- Construction Name
  {2e99a1ba-7f67-4177-a137-7612dd8c57c7}, !- Space Name
  Surface,                                !- Outside Boundary Condition
  {a8243a68-4ab7-4069-8e1d-b7054e2ba623}, !- Outside Boundary Condition Object
  NoSun,                                  !- Sun Exposure
  NoWind,                                 !- Wind Exposure
  ,                                       !- View Factor to Ground
  ,                                       !- Number of Vertices
  26.8875, 13.5765, 6.096,                !- X,Y,Z Vertex 1 {m}
  26.8875, 13.5765, 0,                    !- X,Y,Z Vertex 2 {m}
  -26.1698, 13.5765, 0,                   !- X,Y,Z Vertex 3 {m}
  -26.1698, 13.5765, 6.096;               !- X,Y,Z Vertex 4 {m}

OS:ThermalZone,
  {1317ada6-b84c-4a2e-a364-bd740254057c}, !- Handle
  Sales Thermal Zone,                     !- Name
  1,                                      !- Multiplier
  ,                                       !- Ceiling Height {m}
  ,                                       !- Volume {m3}
  ,                                       !- Floor Area {m2}
  ,                                       !- Zone Inside Convection Algorithm
  ,                                       !- Zone Outside Convection Algorithm
  ,                                       !- Zone Conditioning Equipment List Name
  {5352a013-c008-43d6-91ed-816b9a619c28}, !- Zone Air Inlet Port List
  {58b4dff3-1830-4c7f-8eaa-9b65f3eb9df3}, !- Zone Air Exhaust Port List
  {64526253-b300-489c-b1ec-bb8851de4c03}, !- Zone Air Node Name
  ,                                       !- Zone Return Air Node Name
  ,                                       !- Primary Daylighting Control Name
  ,                                       !- Fraction of Zone Controlled by Primary Daylighting Control
  ,                                       !- Secondary Daylighting Control Name
  ,                                       !- Fraction of Zone Controlled by Secondary Daylighting Control
  ,                                       !- Illuminance Map Name
  {21c7a403-882a-4e5e-8b39-eaf45920d880}, !- Group Rendering Name
  {3c9370f9-29fd-4039-99de-ad416d0aeab5}, !- Thermostat Name
  Yes;                                    !- Use Ideal Air Loads

OS:Node,
  {852a590b-ea49-4831-91a1-63bfe54a4f55}, !- Handle
  {422a63b5-7872-48a4-9a8e-56cf6a6f9238}, !- Name
  {64526253-b300-489c-b1ec-bb8851de4c03}, !- Inlet Port
  ;                                       !- Outlet Port

OS:Connection,
  {64526253-b300-489c-b1ec-bb8851de4c03}, !- Handle
  {0479bd18-9016-40c3-bc4b-dcf6b0dda61f}, !- Name
  {1317ada6-b84c-4a2e-a364-bd740254057c}, !- Source Object
  11,                                     !- Outlet Port
  {852a590b-ea49-4831-91a1-63bfe54a4f55}, !- Target Object
  2;                                      !- Inlet Port

OS:PortList,
  {5352a013-c008-43d6-91ed-816b9a619c28}, !- Handle
  {63336c9b-1380-4d02-af06-3f47740248c7}, !- Name
  {1317ada6-b84c-4a2e-a364-bd740254057c}; !- HVAC Component

OS:PortList,
  {58b4dff3-1830-4c7f-8eaa-9b65f3eb9df3}, !- Handle
  {ab89517b-0a08-42c3-8c2b-5a8fd2f3c06d}, !- Name
  {1317ada6-b84c-4a2e-a364-bd740254057c}; !- HVAC Component

OS:Sizing:Zone,
  {e0f5a6d5-3601-428d-b30e-7b24e0ea55ca}, !- Handle
  {1317ada6-b84c-4a2e-a364-bd740254057c}, !- Zone or ZoneList Name
  14,                                     !- Zone Cooling Design Supply Air Temperature {C}
  40,                                     !- Zone Heating Design Supply Air Temperature {C}
  0.0085,                                 !- Zone Cooling Design Supply Air Humidity Ratio {kg-H2O/kg-air}
  0.008,                                  !- Zone Heating Design Supply Air Humidity Ratio {kg-H2O/kg-air}
  ,                                       !- Zone Heating Sizing Factor
  ,                                       !- Zone Cooling Sizing Factor
  DesignDay,                              !- Cooling Design Air Flow Method
  ,                                       !- Cooling Design Air Flow Rate {m3/s}
  ,                                       !- Cooling Minimum Air Flow per Zone Floor Area {m3/s-m2}
  ,                                       !- Cooling Minimum Air Flow {m3/s}
  ,                                       !- Cooling Minimum Air Flow Fraction
  DesignDay,                              !- Heating Design Air Flow Method
  ,                                       !- Heating Design Air Flow Rate {m3/s}
  ,                                       !- Heating Maximum Air Flow per Zone Floor Area {m3/s-m2}
  ,                                       !- Heating Maximum Air Flow {m3/s}
  ,                                       !- Heating Maximum Air Flow Fraction
  ,                                       !- Design Zone Air Distribution Effectiveness in Cooling Mode
  ;                                       !- Design Zone Air Distribution Effectiveness in Heating Mode

OS:ZoneHVAC:EquipmentList,
  {068f477a-4a54-41ae-93b2-7f4e8df05669}, !- Handle
  {1279c943-4846-4341-a3bd-11c3855fd99b}, !- Name
  {1317ada6-b84c-4a2e-a364-bd740254057c}; !- Thermal Zone

OS:Space,
  {2e99a1ba-7f67-4177-a137-7612dd8c57c7}, !- Handle
  Sales,                                  !- Name
  {251196d7-e2a3-4093-ab8c-92478557f7a1}, !- Space Type Name
  ,                                       !- Default Construction Set Name
  ,                                       !- Default Schedule Set Name
  0,                                      !- Direction of Relative North {deg}
  0,                                      !- X Origin {m}
  0,                                      !- Y Origin {m}
  0,                                      !- Z Origin {m}
  {39a5df78-1808-4188-9dee-7897d745bb96}, !- Building Story Name
  {1317ada6-b84c-4a2e-a364-bd740254057c}, !- Thermal Zone Name
  Yes;                                    !- Part of Total Floor Area

OS:ThermostatSetpoint:DualSetpoint,
  {c133c06a-967b-4534-9db9-d6e6aa86b43a}, !- Handle
  {f04aa1f9-0be1-49b1-bc0b-cd45634c8a6f}, !- Name
  ,                                       !- Heating Setpoint Temperature Schedule Name
  ;                                       !- Cooling Setpoint Temperature Schedule Name

OS:ScheduleTypeLimits,
  {8a2998fc-ae9c-4fe3-8b59-5748f436d07a}, !- Handle
  {a0a7db97-dcb8-4342-ad4f-a559e453e057}; !- Name

OS:ScheduleTypeLimits,
  {a68fa03d-204d-4cc2-9d18-6461d0168cf5}, !- Handle
  On/Off,                                 !- Name
  0,                                      !- Lower Limit Value {BasedOnField A4}
  1,                                      !- Upper Limit Value {BasedOnField A4}
  DISCRETE,                               !- Numeric Type
  Availability;                           !- Unit Type

OS:Meter,
  {fa766e90-7f77-4577-9cfe-f9e49e11e2a3}, !- Handle
  Humidifier:Electricity,                 !- Name
  hourly,                                 !- Reporting Frequency
  False,                                  !- Meter File Only
  False;                                  !- Cumulative

OS:Curve:Quadratic,
  {f84d0c6d-4545-47a1-be6e-894629a9e293}, !- Handle
  RACKC_RackCOPfTCurve,                   !- Name
  1.7603,                                 !- Coefficient1 Constant
  -0.0377,                                !- Coefficient2 x
  0.0004,                                 !- Coefficient3 x**2
  10,                                     !- Minimum Value of x {BasedOnField A2}
  35;                                     !- Maximum Value of x {BasedOnField A2}

OS:Surface,
  {5643d1ce-bfbc-4ec7-8046-a82c2fe37d2c}, !- Handle
  Bakery_Ceiling,                         !- Name
  RoofCeiling,                            !- Surface Type
  ,                                       !- Construction Name
  {6714982c-ce99-4e05-b8e4-47ef2da93f54}, !- Space Name
  Outdoors,                               !- Outside Boundary Condition
  ,                                       !- Outside Boundary Condition Object
  SunExposed,                             !- Sun Exposure
  WindExposed,                            !- Wind Exposure
  ,                                       !- View Factor to Ground
  ,                                       !- Number of Vertices
  36.7863, -30.2429, 6.096,               !- X,Y,Z Vertex 1 {m}
  36.7863, -9.1251, 6.096,                !- X,Y,Z Vertex 2 {m}
  26.8875, -9.1251, 6.096,                !- X,Y,Z Vertex 3 {m}
  26.8875, -30.2429, 6.096;               !- X,Y,Z Vertex 4 {m}

OS:ThermalZone,
  {f20d579a-3dd4-459d-9f17-e9fd491fc317}, !- Handle
  Produce Thermal Zone,                   !- Name
  1,                                      !- Multiplier
  ,                                       !- Ceiling Height {m}
  ,                                       !- Volume {m3}
  ,                                       !- Floor Area {m2}
  ,                                       !- Zone Inside Convection Algorithm
  ,                                       !- Zone Outside Convection Algorithm
  ,                                       !- Zone Conditioning Equipment List Name
  {ad7ab882-a02d-4c23-99bb-06ff3f542a97}, !- Zone Air Inlet Port List
  {0d5ecd2e-7a05-4e8d-a11d-46b68f1e0ee8}, !- Zone Air Exhaust Port List
  {6d5ffabc-4ab2-43d9-8fec-d414058f060e}, !- Zone Air Node Name
  ,                                       !- Zone Return Air Node Name
  ,                                       !- Primary Daylighting Control Name
  ,                                       !- Fraction of Zone Controlled by Primary Daylighting Control
  ,                                       !- Secondary Daylighting Control Name
  ,                                       !- Fraction of Zone Controlled by Secondary Daylighting Control
  ,                                       !- Illuminance Map Name
  {136e1b20-5f83-4eb0-9586-ae7eb669ca4a}, !- Group Rendering Name
  {3c9370f9-29fd-4039-99de-ad416d0aeab5}, !- Thermostat Name
  Yes;                                    !- Use Ideal Air Loads

OS:Node,
  {73ecc862-49d2-43b8-b5a6-cda1afa0289a}, !- Handle
  {5ef85b44-f6e0-4dfa-8716-f0b71cbc29cd}, !- Name
  {6d5ffabc-4ab2-43d9-8fec-d414058f060e}, !- Inlet Port
  ;                                       !- Outlet Port

OS:Connection,