
OS:Version,
  {f2f13632-e472-4f34-9b6e-45127477d18a}, !- Handle
  1.5.0;                                  !- Version Identifier

OS:Site,
  {07e688e4-aab8-4d7c-8c70-4fc4f5bdc5e9}, !- Handle
  USA IL-CHICAGO-OHARE,                   !- Name
  41.77,                                  !- Latitude {deg}
  -87.75,                                 !- Longitude {deg}
  -6,                                     !- Time Zone {hr}
  190,                                    !- Elevation {m}
  City;                                   !- Terrain

OS:SimulationControl,
  {0669b5b4-f48e-46a9-babd-9029bffe1ee6}, !- Handle
  Yes,                                    !- Do Zone Sizing Calculation
  Yes,                                    !- Do System Sizing Calculation
  Yes,                                    !- Do Plant Sizing Calculation
  No,                                     !- Run Simulation for Sizing Periods
  Yes,                                    !- Run Simulation for Weather File Run Periods
  0.04,                                   !- Loads Convergence Tolerance Value
  0.2,                                    !- Temperature Convergence Tolerance Value {deltaC}
  FullInteriorAndExterior,                !- Solar Distribution
  40,                                     !- Maximum Number of Warmup Days
  6;                                      !- Minimum Number of Warmup Days

OS:ThermalZone,
  {36365541-aab4-43ce-b18a-9abbc6a6ad8f}, !- Handle
  Office Thermal Zone,                    !- Name
  1,                                      !- Multiplier
  ,                                       !- Ceiling Height {m}
  ,                                       !- Volume {m3}
  ,                                       !- Floor Area {m2}
  ,                                       !- Zone Inside Convection Algorithm
  ,                                       !- Zone Outside Convection Algorithm
  ,                                       !- Zone Conditioning Equipment List Name
  {6c3b195f-b4ca-4533-a268-d823911ade2d}, !- Zone Air Inlet Port List
  {6a4d1c81-3e40-4eff-a9d6-780bd50586e2}, !- Zone Air Exhaust Port List
  {9709abe9-a289-4ecd-9398-6dbee77fac45}, !- Zone Air Node Name
  ,                                       !- Zone Return Air Node Name
  ,                                       !- Primary Daylighting Control Name
  ,                                       !- Fraction of Zone Controlled by Primary Daylighting Control
  ,                                       !- Secondary Daylighting Control Name
  ,                                       !- Fraction of Zone Controlled by Secondary Daylighting Control
  ,                                       !- Illuminance Map Name
  {d453e655-ba2e-4a7c-9cf2-234937394679}, !- Group Rendering Name
  {fdae8c41-2bb6-4e1e-a67e-3a9411d1fb6b}, !- Thermostat Name
  Yes;                                    !- Use Ideal Air Loads

OS:Node,
  {e81844d8-f0ce-472b-a577-a59d05f56c8e}, !- Handle
  {d96bca4e-10a1-4ba1-94f1-74630264a44d}, !- Name
  {9709abe9-a289-4ecd-9398-6dbee77fac45}, !- Inlet Port
  ;                                       !- Outlet Port

OS:Connection,
  {9709abe9-a289-4ecd-9398-6dbee77fac45}, !- Handle
  {13212ff8-3fff-483f-ac56-11dff696887b}, !- Name
  {36365541-aab4-43ce-b18a-9abbc6a6ad8f}, !- Source Object
  11,                                     !- Outlet Port
  {e81844d8-f0ce-472b-a577-a59d05f56c8e}, !- Target Object
  2;                                      !- Inlet Port

OS:PortList,
  {6c3b195f-b4ca-4533-a268-d823911ade2d}, !- Handle
  {05d7b49a-3322-4c14-8ab2-f4b5d81c6706}, !- Name
  {36365541-aab4-43ce-b18a-9abbc6a6ad8f}; !- HVAC Component

OS:PortList,
  {6a4d1c81-3e40-4eff-a9d6-780bd50586e2}, !- Handle
  {aadc03f0-b314-44eb-9837-5e4beebf29cb}, !- Name
  {36365541-aab4-43ce-b18a-9abbc6a6ad8f}; !- HVAC Component

OS:Sizing:Zone,
  {a1ebbf07-90eb-45c4-9626-20a29bed98a1}, !- Handle
  {36365541-aab4-43ce-b18a-9abbc6a6ad8f}, !- Zone or ZoneList Name
  14,                                     !- Zone Cooling Design Supply Air Temperature {C}
  40,                                     !- Zone Heating Design Supply Air Temperature {C}
  0.0085,                                 !- Zone Cooling Design Supply Air Humidity Ratio {kg-H2O/kg-air}
  0.008,                                  !- Zone Heating Design Supply Air Humidity Ratio {kg-H2O/kg-air}
  ,                                       !- Zone Heating Sizing Factor
  ,                                       !- Zone Cooling Sizing Factor
  DesignDay,                              !- Cooling Design Air Flow Method
  ,                                       !- Cooling Design Air Flow Rate {m3/s}
  ,                                       !- Cooling Minimum Air Flow per Zone Floor Area {m3/s-m2}
  ,                                       !- Cooling Minimum Air Flow {m3/s}
  ,                                       !- Cooling Minimum Air Flow Fraction
  DesignDay,                              !- Heating Design Air Flow Method
  ,                                       !- Heating Design Air Flow Rate {m3/s}
  ,                                       !- Heating Maximum Air Flow per Zone Floor Area {m3/s-m2}
  ,                                       !- Heating Maximum Air Flow {m3/s}
  ,                                       !- Heating Maximum Air Flow Fraction
  ,                                       !- Design Zone Air Distribution Effectiveness in Cooling Mode
  ;                                       !- Design Zone Air Distribution Effectiveness in Heating Mode

OS:ZoneHVAC:EquipmentList,
  {d75d5511-2e17-48cd-8f0d-cf9ef08479a9}, !- Handle
  {0f6ae63a-d899-43f1-9a41-c634fedd8022}, !- Name
  {36365541-aab4-43ce-b18a-9abbc6a6ad8f}; !- Thermal Zone

OS:Space,
  {dc3f4b0e-e965-4969-89cc-77358ba153b0}, !- Handle
  Office,                                 !- Name
  {328e1325-fb41-4488-9e8b-fe9601f36a31}, !- Space Type Name
  ,                                       !- Default Construction Set Name
  ,                                       !- Default Schedule Set Name
  0,                                      !- Direction of Relative North {deg}
  0,                                      !- X Origin {m}
  0,                                      !- Y Origin {m}
  0,                                      !- Z Origin {m}
  {fc6f65b4-6de9-4d6c-9ca2-00226b349e83}, !- Building Story Name
  {36365541-aab4-43ce-b18a-9abbc6a6ad8f}, !- Thermal Zone Name
  Yes;                                    !- Part of Total Floor Area

OS:ThermostatSetpoint:DualSetpoint,
  {9582b538-2d48-4419-8846-51ea5b38f619}, !- Handle
  {e6b66a44-8ffb-4b98-b4ef-1a8efd89e4df}, !- Name
  ,                                       !- Heating Setpoint Temperature Schedule Name
  ;                                       !- Cooling Setpoint Temperature Schedule Name

OS:ScheduleTypeLimits,
  {b79ce054-5b8f-4afe-a268-6d7e4cdb8b31}, !- Handle
  Temperature,                            !- Name
  -60,                                    !- Lower Limit Value {BasedOnField A4}
  200,                                    !- Upper Limit Value {BasedOnField A4}
  CONTINUOUS,                             !- Numeric Type
  Temperature;                            !- Unit Type

OS:ScheduleTypeLimits,
  {0f01274e-430e-4a53-a4f5-f8fad865a735}, !- Handle
  Fraction,                               !- Name
  0,                                      !- Lower Limit Value {BasedOnField A4}
  1,                                      !- Upper Limit Value {BasedOnField A4}
  CONTINUOUS;                             !- Numeric Type

OS:Meter,
  {8ebd5291-5b03-43ba-ac11-96bf508dd890}, !- Handle
  InteriorEquipment:Gas,                  !- Name
  hourly,                                 !- Reporting Frequency
  False,                                  !- Meter File Only
  False;                                  !- Cumulative

OS:Surface,
  {9ee5491b-9541-4030-98af-967ae3e41bb2}, !- Handle
  BulkStorage_Wall_East,                  !- Name
  Wall,                                   !- Surface Type
  ,                                       !- Construction Name
  {a8bea87f-f48b-4271-9bfb-5a95b6113a62}, !- Space Name
  Outdoors,                               !- Outside Boundary Condition
  ,                                       !- Outside Boundary Condition Object
  SunExposed,                             !- Sun Exposure
  WindExposed,                            !- Wind Exposure
  ,                                       !- View Factor to Ground
  ,                                       !- Number of Vertices
  45.7178, 30.4785, 8.534,                !- X,Y,Z Vertex 1 {m}
  45.7178, 30.4785, 0,                    !- X,Y,Z Vertex 2 {m}
  45.7178, 100.579, 0,                    !- X,Y,Z Vertex 3 {m}
  45.7178, 100.579, 8.534;                !- X,Y,Z Vertex 4 {m}

OS:ThermalZone,
  {bdb87eee-5791-458f-8d38-a7a322890fe1}, !- Handle
  BulkStorage Thermal Zone,               !- Name
  1,                                      !- Multiplier
  ,                                       !- Ceiling Height {m}
  ,                                       !- Volume {m3}
  ,                                       !- Floor Area {m2}
  ,                                       !- Zone Inside Convection Algorithm
  ,                                       !- Zone Outside Convection Algorithm
  ,                                       !- Zone Conditioning Equipment List Name
  {6451d7d2-4e8e-4aa7-83f6-4b977d4e2a74}, !- Zone Air Inlet Port List
  {7f231634-828a-43a0-87ba-1abb1dca333d}, !- Zone Air Exhaust Port List
  {0b4bcd87-4758-43e4-8662-047d460cef1a}, !- Zone Air Node Name
  ,                                       !- Zone Return Air Node Name
  ,                                       !- Primary Daylighting Control Name
  ,                                       !- Fraction of Zone Controlled by Primary Daylighting Control
  ,                                       !- Secondary Daylighting Control Name
  ,                                       !- Fraction of Zone Controlled by Secondary Daylighting Control
  ,                                       !- Illuminance Map Name
  {d9f8fd80-8f25-430b-96be-0243c80c0b05}, !- Group Rendering Name
  {fdae8c41-2bb6-4e1e-a67e-3a9411d1fb6b}, !- Thermostat Name
  Yes;                                    !- Use Ideal Air Loads

OS:Node,
  {ccec69ea-ef2f-49ea-a982-7019a43b14e6}, !- Handle
  {76c4b06f-1c20-47bd-a03b-caccf02dd645}, !- Name
  {0b4bcd87-4758-43e4-8662-047d460cef1a}, !- Inlet Port
  ;                                       !- Outlet Port

OS:Connection,
  {0b4bcd87-4758-43e4-8662-047d460cef1a}, !- Handle
  {5e0d1b3f-732f-4553-a1f3-0970e1aa3495}, !- Name
  {bdb87eee-5791-458f-8d38-a7a322890fe1}, !- Source Object
  11,                                     !- Outlet Port
  {ccec69ea-ef2f-49ea-a982-7019a43b14e6}, !- Target Object
  2;                                      !- Inlet Port

OS:PortList,
  {6451d7d2-4e8e-4aa7-83f6-4b977d4e2a74}, !- Handle
  {4c2b617f-eea2-4e89-a6ff-253b53c940ac}, !- Name
  {bdb87eee-5791-458f-8d38-a7a322890fe1}; !- HVAC Component

OS:PortList,
  {7f231634-828a-43a0-87ba-1abb1dca333d}, !- Handle
  {46318763-0fff-41ac-932f-092f3b8148ae}, !- Name
  {bdb87eee-5791-458f-8d38-a7a322890fe1}; !- HVAC Component

OS:Sizing:Zone,
  {0229742d-1d19-4597-af72-91d576b1682d}, !- Handle
  {bdb87eee-5791-458f-8d38-a7a322890fe1}, !- Zone or ZoneList Name
  14,                                     !- Zone Cooling Design Supply Air Temperature {C}
  40,                                     !- Zone Heating Design Supply Air Temperature {C}
  0.0085,                                 !- Zone Cooling Design Supply Air Humidity Ratio {kg-H2O/kg-air}
  0.008,                                  !- Zone Heating Design Supply Air Humidity Ratio {kg-H2O/kg-air}
  ,                                       !- Zone Heating Sizing Factor
  ,                                       !- Zone Cooling Sizing Factor
  DesignDay,                              !- Cooling Design Air Flow Method
  ,                                       !- Cooling Design Air Flow Rate {m3/s}
  ,                                       !- Cooling Minimum Air Flow per Zone Floor Area {m3/s-m2}
  ,                                       !- Cooling Minimum Air Flow {m3/s}
  ,                                       !- Cooling Minimum Air Flow Fraction
  DesignDay,                              !- Heating Design Air Flow Method
  ,                                       !- Heating Design Air Flow Rate {m3/s}
  ,                                       !- Heating Maximum Air Flow per Zone Floor Area {m3/s-m2}
  ,                                       !- Heating Maximum Air Flow {m3/s}
  ,                                       !- Heating Maximum Air Flow Fraction
  ,                                       !- Design Zone Air Distribution Effectiveness in Cooling Mode
  ;                                       !- Design Zone Air Distribution Effectiveness in Heating Mode

OS:ZoneHVAC:EquipmentList,
  {b2d6dd4d-fd84-485a-a818-0604dce26fdc}, !- Handle
  {2fc1e184-4e24-4793-b343-cf23a49c0938}, !- Name
  {bdb87eee-5791-458f-8d38-a7a322890fe1}; !- Thermal Zone

OS:Space,
  {a8bea87f-f48b-4271-9bfb-5a95b6113a62}, !- Handle
  BulkStorage,                            !- Name
  {5e73c14d-9b83-4911-b04f-be5e6d51e705}, !- Space Type Name
  ,                                       !- Default Construction Set Name
  ,                                       !- Default Schedule Set Name
  0,                                      !- Direction of Relative North {deg}
  0,                                      !- X Origin {m}
  0,                                      !- Y Origin {m}
  0,                                      !- Z Origin {m}
  {fc6f65b4-6de9-4d6c-9ca2-00226b349e83}, !- Building Story Name
  {bdb87eee-5791-458f-8d38-a7a322890fe1}, !- Thermal Zone Name
  Yes;                                    !- Part of Total Floor Area

OS:ThermostatSetpoint:DualSetpoint,
  {64b7cf91-987e-4045-b181-c6da7aa4f599}, !- Handle
  {e97a979d-abad-434a-85b6-b5217203febe}, !- Name
  ,                                       !- Heating Setpoint Temperature Schedule Name
  ;                                       !- Cooling Setpoint Temperature Schedule Name

OS:ScheduleTypeLimits,
  {5c93b3c4-0dd9-4626-8dd8-33d18224b500}, !- Handle
  On/Off,                                 !- Name
  0,                                      !- Lower Limit Value {BasedOnField A4}
  1,                                      !- Upper Limit Value {BasedOnField A4}
  DISCRETE,                               !- Numeric Type
  Availability;                           !- Unit Type

OS:Meter,
  {26952e57-7f46-4847-8956-ac2d56a3565b}, !- Handle
  Heating:Electricity,                    !- Name
  hourly,                                 !- Reporting Frequency
  False,                                  !- Meter File Only
  False;                                  !- Cumulative

OS:Surface,
  {299e5038-1cfc-4419-aa67-c2e67d01eb0b}, !- Handle
  Fine Storage Office_Wall_West,          !- Name
  Wall,                                   !- Surface Type
  ,                                       !- Construction Name
  {6672d645-bcb7-4f80-9e76-84665b16523a}, !- Space Name
  Outdoors,                               !- Outside Boundary Condition
  ,                                       !- Outside Boundary Condition Object
  SunExposed,                             !- Sun Exposure
  WindExposed,                            !- Wind Exposure
  ,                                       !- View Factor to Ground
  ,                                       !- Number of Vertices
  0, 9.1435, 8.534,                       !- X,Y,Z Vertex 1 {m}
  0, 9.1435, 4.267,                       !- X,Y,Z Vertex 2 {m}
  0, 0, 4.267,                            !- X,Y,Z Vertex 3 {m}
  0, 0, 8.534;                            !- X,Y,Z Vertex 4 {m}

OS:ThermalZone,
  {cd91c4ca-d305-4ae8-8ef3-9013293037a9}, !- Handle
  FineStorage Thermal Zone,               !- Name
  1,                                      !- Multiplier
  ,                                       !- Ceiling Height {m}
  ,                                       !- Volume {m3}
  ,                                       !- Floor Area {m2}
  ,                                       !- Zone Inside Convection Algorithm
  ,                                       !- Zone Outside Convection Algorithm
  ,                                       !- Zone Conditioning Equipment List Name
  {eac6ebee-a12b-4e99-83d0-faf39b32d0a1}, !- Zone Air Inlet Port List
  {74f3addd-9232-44bf-8d0f-965db4addf21}, !- Zone Air Exhaust Port List
  {49a41fcb-a22a-4086-9b36-0c4a5a4bf6b7}, !- Zone Air Node Name
  ,                                       !- Zone Return Air Node Name
  ,                                       !- Primary Daylighting Control Name
  ,                                       !- Fraction of Zone Controlled by Primary Daylighting Control
  ,                                       !- Secondary Daylighting Control Name
  ,                                       !- Fraction of Zone Controlled by Secondary Daylighting Control
  ,                                       !- Illuminance Map Name
  {36c3ea67-a99e-46f6-a442-535ec4286c0c}, !- Group Rendering Name
  {fdae8c41-2bb6-4e1e-a67e-3a9411d1fb6b}, !- Thermostat Name
  Yes;                                    !- Use Ideal Air Loads

OS:Node,
  {16012687-bd52-4cda-8454-2f7d5d63354f}, !- Handle
  {ba8b4ca7-bea1-43f0-8e1b-3d1c5a0421f6}, !- Name
  {49a41fcb-a22a-4086-9b36-0c4a5a4bf6b7}, !- Inlet Port
  ;                                       !- Outlet Port

OS:Connection,
  {49a41fcb-a22a-4086-9b36-0c4a5a4bf6b7}, !- Handle
  {8366dc9a-36f1-4d91-b451-ad335754725a}, !- Name
  {cd91c4ca-d305-4ae8-8ef3-9013293037a9}, !- Source Object
  11,                                     !- Outlet Port
  {16012687-bd52-4cda-8454-2f7d5d63354f}, !- Target Object
  2;                                      !- Inlet Port

OS:PortList,
  {eac6ebee-a12b-4e99-83d0-faf39b32d0a1}, !- Handle
  {558fb5d8-f75e-4df0-ad2d-f710a42f04a5}, !- Name
  {cd91c4ca-d305-4ae8-8ef3-9013293037a9}; !- HVAC Component

OS:PortList,
  {74f3addd-9232-44bf-8d0f-965db4addf21}, !- Handle
  {5e308e2c-50a0-4baf-99cc-7d396ca14be9}, !- Name
  {cd91c4ca-d305-4ae8-8ef3-9013293037a9}; !- HVAC Component

OS:Sizing:Zone,
  {9be91d96-a5c5-45d2-abb2-9f4ccd0d55df}, !- Handle
  {cd91c4ca-d305-4ae8-8ef3-9013293037a9}, !- Zone or ZoneList Name
  14,                                     !- Zone Cooling Design Supply Air Temperature {C}
  40,                                     !- Zone Heating Design Supply Air Temperature {C}
  0.0085,                                 !- Zone Cooling Design Supply Air Humidity Ratio {kg-H2O/kg-air}
  0.008,                                  !- Zone Heating Design Supply Air Humidity Ratio {kg-H2O/kg-air}
  ,                                       !- Zone Heating Sizing Factor
  ,                                       !- Zone Cooling Sizing Factor
  DesignDay,                              !- Cooling Design Air Flow Method
  ,                                       !- Cooling Design Air Flow Rate {m3/s}
  ,                                       !- Cooling Minimum Air Flow per Zone Floor Area {m3/s-m2}
  ,                                       !- Cooling Minimum Air Flow {m3/s}
  ,                                       !- Cooling Minimum Air Flow Fraction
  DesignDay,                              !- Heating Design Air Flow Method
  ,                                       !- Heating Design Air Flow Rate {m3/s}
  ,                                       !- Heating Maximum Air Flow per Zone Floor Area {m3/s-m2}
  ,                                       !- Heating Maximum Air Flow {m3/s}
  ,                                       !- Heating Maximum Air Flow Fraction
  ,                                       !- Design Zone Air Distribution Effectiveness in Cooling Mode
  ;                                       !- Design Zone Air Distribution Effectiveness in Heating Mode

OS:ZoneHVAC:EquipmentList,
  {8c882485-86d7-44fe-9286-81d3b7bb0062}, !- Handle
  {b54c6028-279c-40d6-9760-35385d62ee27}, !- Name
  {cd91c4ca-d305-4ae8-8ef3-9013293037a9}; !- Thermal Zone

OS:Space,
  {6672d645-bcb7-4f80-9e76-84665b16523a}, !- Handle
  FineStorage,                            !- Name
  {8f7f6d3a-1359-4186-8495-9086a5df7f2a}, !- Space Type Name
  ,                                       !- Default Construction Set Name
  ,                                       !- Default Schedule Set Name
  0,                                      !- Direction of Relative North {deg}
  0,                                      !- X Origin {m}
  0,                                      !- Y Origin {m}
  0,                                      !- Z Origin {m}
  {fc6f65b4-6de9-4d6c-9ca2-00226b349e83}, !- Building Story Name
  {cd91c4ca-d305-4ae8-8ef3-9013293037a9}, !- Thermal Zone Name
  Yes;                                    !- Part of Total Floor Area

OS:ThermostatSetpoint:DualSetpoint,
  {2ab2840c-6b8d-4996-8d83-fdaa28d4e6e4}, !- Handle
  {313d53d8-6df3-4200-bd14-7126e7080b32}, !- Name
  ,                                       !- Heating Setpoint Temperature Schedule Name
  ;                                       !- Cooling Setpoint Temperature Schedule Name

OS:HeatBalanceAlgorithm,
  {0cadc78a-b368-4b38-b444-4d83a721afa7}, !- Handle
  ConductionTransferFunction,             !- Algorithm
  200;                                    !- Surface Temperature Upper Limit {F}

OS:ScheduleTypeLimits,
  {ea1e7ebb-a380-4669-9f3c-fd540f98bce6}, !- Handle
  {acde8ab2-2a57-4553-b359-5686f2213260}; !- Name

OS:ScheduleTypeLimits,
  {f104fcc6-04e9-4677-8004-8dbf903390cf}, !- Handle
  ActivityLevel,                          !- Name
  0,                                      !- Lower Limit Value {BasedOnField A4}
  ,                                       !- Upper Limit Value {BasedOnField A4}
  Continuous,                             !- Numeric Type
  ActivityLevel;                          !- Unit Type

OS:ScheduleTypeLimits,
  {c8f0aa3a-0337-4c8a-96e8-fbf2cffc70b5}, !- Handle
  {042ce31e-3de3-448d-b51a-eaf6a18faf63}; !- Name

OS:ScheduleTypeLimits,
  {0f679510-ce44-43f1-9009-3ce702b16728}, !- Handle
  ClothingInsulation,                     !- Name
  0,                                      !- Lower Limit Value {BasedOnField A4}
  ,                                       !- Upper Limit Value {BasedOnField A4}
  Continuous,                             !- Numeric Type
  ClothingInsulation;                     !- Unit Type

OS:ScheduleTypeLimits,
  {5b22ec5f-c4c5-4edd-ad74-cc724d79a064}, !- Handle
  {eedff3d7-4b60-4f0a-873a-b58fb84b9943}; !- Name

OS:ScheduleTypeLimits,
  {e8aa2ea5-0878-4fb9-a885-272aac153168}, !- Handle
  Velocity,                               !- Name
  0,                                      !- Lower Limit Value {BasedOnField A4}
  ,                                       !- Upper Limit Value {BasedOnField A4}
  Continuous,                             !- Numeric Type
  Velocity;                               !- Unit Type

OS:Surface,
  {11efce66-cc3d-4c69-9f76-1754c03b5a9d}, !- Handle
  FineStorage_Ceiling,                    !- Name
  RoofCeiling,                            !- Surface Type
  ,                                       !- Construction Name
  {6672d645-bcb7-4f80-9e76-84665b16523a}, !- Space Name
  Outdoors,                               !- Outside Boundary Condition
  ,                                       !- Outside Boundary Condition Object
  SunExposed,                             !- Sun Exposure
  WindExposed,                            !- Wind Exposure
  ,                                       !- View Factor to Ground
  ,                                       !- Number of Vertices
  45.7178, 0, 8.534,                      !- X,Y,Z Vertex 1 {m}
  45.7178, 30.4785, 8.534,                !- X,Y,Z Vertex 2 {m}
  0, 30.4785, 8.534,                      !- X,Y,Z Vertex 3 {m}
  0, 0, 8.534;                            !- X,Y,Z Vertex 4 {m}

OS:Curve:Biquadratic,
  {580d0536-d5f3-455f-b9f6-ad554d3c0893}, !- Handle
  Cool-Cap-fT,                            !- Name
  0.9712123,                              !- Coefficient1 Constant
  -0.015275502,                           !- Coefficient2 x
  0.0014434524,                           !- Coefficient3 x**2
  -0.00039321,                            !- Coefficient4 y
  -6.8364e-006,                           !- Coefficient5 y**2
  -0.0002905956,                          !- Coefficient6 x*y
  -100,                                   !- Minimum Value of x {BasedOnField A2}
  100,                                    !- Maximum Value of x {BasedOnField A2}
  -100,                                   !- Minimum Value of y {BasedOnField A3}
  100;                                    !- Maximum Value of y {BasedOnField A3}

OS:Surface,
  {0fac5610-2a55-4747-8f0c-7c3fe1751525}, !- Handle
  FineStorage_Wall_West_1,                !- Name
  Wall,                                   !- Surface Type
  ,                                       !- Construction Name
  {6672d645-bcb7-4f80-9e76-84665b16523a}, !- Space Name
  Outdoors,                               !- Outside Boundary Condition
  ,                                       !- Outside Boundary Condition Object
  SunExposed,                             !- Sun Exposure
  WindExposed,                            !- Wind Exposure
  ,                                       !- View Factor to Ground
  ,                                       !- Number of Vertices
  0, 30.4785, 8.534,                      !- X,Y,Z Vertex 1 {m}
  0, 30.4785, 0,                          !- X,Y,Z Vertex 2 {m}
  0, 9.1435, 0,                           !- X,Y,Z Vertex 3 {m}
  0, 9.1435, 8.534;                       !- X,Y,Z Vertex 4 {m}

OS:SubSurface,
  {36843eac-2f36-4de9-87f8-60faeeb94043}, !- Handle
  Office_Wall_South Window2,              !- Name
  FixedWindow,                            !- Sub Surface Type
  ,                                       !- Construction Name
  {6d85a4de-c38e-4e60-8711-a8f6c3bcf869}, !- Surface Name
  ,                                       !- Outside Boundary Condition Object
  ,                                       !- View Factor to Ground
  ,                                       !- Shading Control Name
  ,                                       !- Frame and Divider Name
  1,                                      !- Multiplier
  ,                                       !- Number of Vertices
  18.5919, 0, 2.4393,                     !- X,Y,Z Vertex 1 {m}
  18.5919, 0, 0.9144,                     !- X,Y,Z Vertex 2 {m}
  22.2493, 0, 0.9144,                     !- X,Y,Z Vertex 3 {m}
  22.2493, 0, 2.4393;                     !- X,Y,Z Vertex 4 {m}

OS:Surface,
  {6d85a4de-c38e-4e60-8711-a8f6c3bcf869}, !- Handle
  Office_Wall_South,                      !- Name
  Wall,                                   !- Surface Type
  ,                                       !- Construction Name
  {dc3f4b0e-e965-4969-89cc-77358ba153b0}, !- Space Name
  Outdoors,                               !- Outside Boundary Condition
  ,                                       !- Outside Boundary Condition Object
  SunExposed,                             !- Sun Exposure
  WindExposed,                            !- Wind Exposure
  ,                                       !- View Factor to Ground
  ,                                       !- Number of Vertices
  0, 0, 4.267,                            !- X,Y,Z Vertex 1 {m}
  0, 0, 0,                                !- X,Y,Z Vertex 2 {m}
  25.9067, 0, 0,                          !- X,Y,Z Vertex 3 {m}
  25.9067, 0, 4.267;                      !- X,Y,Z Vertex 4 {m}

OS:Surface,
  {4b80ef8e-bee5-4637-8bd2-00694669bf78}, !- Handle
  FineStorage_Floor_2,                    !- Name
  Floor,                                  !- Surface Type
  ,                                       !- Construction Name
  {6672d645-bcb7-4f80-9e76-84665b16523a}, !- Space Name
  Surface,                                !- Outside Boundary Condition
  {d4dc122a-8bed-4e19-9c0e-4c9c22a326e2}, !- Outside Boundary Condition Object
  NoSun,                                  !- Sun Exposure
  NoWind,                                 !- Wind Exposure
  ,                                       !- View Factor to Ground
  ,                                       !- Number of Vertices
  25.9067, 9.1435, 4.267,                 !- X,Y,Z Vertex 1 {m}
  25.9067, 0, 4.267,                      !- X,Y,Z Vertex 2 {m}
  0, 0, 4.267,                            !- X,Y,Z Vertex 3 {m}
  0, 9.1435, 4.267;                       !- X,Y,Z Vertex 4 {m}

OS:Surface,
  {93d7eca7-6ce3-4c26-8c2a-15ebf4251678}, !- Handle
  FineStorage_Wall_North,                 !- Name
  Wall,                                   !- Surface Type
  ,                                       !- Construction Name
  {6672d645-bcb7-4f80-9e76-84665b16523a}, !- Space Name
  Outdoors,                               !- Outside Boundary Condition
  ,                                       !- Outside Boundary Condition Object
  SunExposed,                             !- Sun Exposure
  WindExposed,                            !- Wind Exposure
  ,                                       !- View Factor to Ground
  ,                                       !- Number of Vertices
  45.7178, 30.4785, 8.534,                !- X,Y,Z Vertex 1 {m}
  45.7178, 30.4785, 0,                    !- X,Y,Z Vertex 2 {m}
  0, 30.4785, 0,                          !- X,Y,Z Vertex 3 {m}
  0, 30.4785, 8.534;                      !- X,Y,Z Vertex 4 {m}

OS:SubSurface,
  {26053b58-3a17-48e8-9b1e-baf3b8c72793}, !- Handle
  Office_Wall_West Door,                  !- Name
  Door,                                   !- Sub Surface Type
  ,                                       !- Construction Name
  {58f90fac-c2c2-46d1-96f2-ec3907e6b142}, !- Surface Name
  ,                                       !- Outside Boundary Condition Object