
OS:Version,
  {d3e82220-3d91-4fe6-ab00-61a0e375e47e}, !- Handle
  1.7.0;                                  !- Version Identifier

OS:BuildingStory,
  {502329af-7718-4f62-acc9-006f641c72cb}, !- Handle
  "Below-Grade Flr",                      !- Name
  ,                                       !- Nominal Z Coordinate {m}
  ,                                       !- Nominal Floor to Floor Height {m}
  ,                                       !- Default Construction Set Name
  ,                                       !- Default Schedule Set Name
  ;                                       !- Group Rendering Name

OS:BuildingStory,
  {208cf2a1-3114-4fc6-bf3a-6b24394da777}, !- Handle
  "Ground Flr",                           !- Name
  ,                                       !- Nominal Z Coordinate {m}
  ,                                       !- Nominal Floor to Floor Height {m}
  ,                                       !- Default Construction Set Name
  ,                                       !- Default Schedule Set Name
  ;                                       !- Group Rendering Name

OS:BuildingStory,
  {c56eb27e-52e3-46a9-87bb-707c16839699}, !- Handle
  "Top Abv-Grade Flr",                    !- Name
  ,                                       !- Nominal Z Coordinate {m}
  ,                                       !- Nominal Floor to Floor Height {m}
  ,                                       !- Default Construction Set Name
  ,                                       !- Default Schedule Set Name
  ;                                       !- Group Rendering Name

OS:Space,
  {71dfdd8b-96da-4a54-ae17-de95077fa066}, !- Handle
  "South Perim Spc (B.S1)",               !- Name
  ,                                       !- Space Type Name
  ,                                       !- Default Construction Set Name
  ,                                       !- Default Schedule Set Name
  -0,                                     !- Direction of Relative North {deg}
  0,                                      !- X Origin {m}
  0,                                      !- Y Origin {m}
  0,                                      !- Z Origin {m}
  {502329af-7718-4f62-acc9-006f641c72cb}, !- Building Story Name
  {fc392469-a357-4bcc-988e-df6f667361dd}; !- Thermal Zone Name

OS:Space,
  {da04828d-3c93-4407-a63a-05f2fdecff77}, !- Handle
  "East Perim Spc (B.E2)",                !- Name
  ,                                       !- Space Type Name
  ,                                       !- Default Construction Set Name
  ,                                       !- Default Schedule Set Name
  -0,                                     !- Direction of Relative North {deg}
  0,                                      !- X Origin {m}
  0,                                      !- Y Origin {m}
  0,                                      !- Z Origin {m}
  {502329af-7718-4f62-acc9-006f641c72cb}, !- Building Story Name
  {73186258-ce55-4dc4-b4ad-978c59faa069}; !- Thermal Zone Name

OS:Space,
  {a0fc5712-2138-4820-b64b-44a9304bfb65}, !- Handle
  "North Perim Spc (B.N3)",               !- Name
  ,                                       !- Space Type Name
  ,                                       !- Default Construction Set Name
  ,                                       !- Default Schedule Set Name
  -0,                                     !- Direction of Relative North {deg}
  0,                                      !- X Origin {m}
  0,                                      !- Y Origin {m}
  0,                                      !- Z Origin {m}
  {502329af-7718-4f62-acc9-006f641c72cb}, !- Building Story Name
  {98fa983a-6193-4edb-8784-41e0bb990d33}; !- Thermal Zone Name

OS:Space,
  {795c0def-805c-4b4c-8bc9-cd84797da973}, !- Handle
  "West Perim Spc (B.W4)",                !- Name
  ,                                       !- Space Type Name
  ,                                       !- Default Construction Set Name
  ,                                       !- Default Schedule Set Name
  -0,                                     !- Direction of Relative North {deg}
  0,                                      !- X Origin {m}
  0,                                      !- Y Origin {m}
  0,                                      !- Z Origin {m}
  {502329af-7718-4f62-acc9-006f641c72cb}, !- Building Story Name
  {618c2a26-59f6-4b8c-935b-6e268556ef83}; !- Thermal Zone Name

OS:Space,
  {f1bd0d63-b5f2-46ec-aede-f747c809f2d3}, !- Handle
  "Core Spc (B.C5)",                      !- Name
  ,                                       !- Space Type Name
  ,                                       !- Default Construction Set Name
  ,                                       !- Default Schedule Set Name
  -0,                                     !- Direction of Relative North {deg}
  0,                                      !- X Origin {m}
  0,                                      !- Y Origin {m}
  0,                                      !- Z Origin {m}
  {502329af-7718-4f62-acc9-006f641c72cb}, !- Building Story Name
  {8e7baf78-a30b-4a72-877f-962a93429b14}; !- Thermal Zone Name

OS:Space,
  {5aa29814-7457-449a-8bcb-ff911727eef0}, !- Handle
  "South Perim Plnm (B.S6)",              !- Name
  ,                                       !- Space Type Name
  ,                                       !- Default Construction Set Name
  ,                                       !- Default Schedule Set Name
  -0,                                     !- Direction of Relative North {deg}
  0,                                      !- X Origin {m}
  0,                                      !- Y Origin {m}
  0,                                      !- Z Origin {m}
  {502329af-7718-4f62-acc9-006f641c72cb}, !- Building Story Name
  {a45ab56c-d0fd-4211-bcc5-d9121adcffd4}; !- Thermal Zone Name

OS:Space,
  {929d08c7-ebf8-4083-80b8-33957d50774e}, !- Handle
  "East Perim Plnm (B.E7)",               !- Name
  ,                                       !- Space Type Name
  ,                                       !- Default Construction Set Name
  ,                                       !- Default Schedule Set Name
  -0,                                     !- Direction of Relative North {deg}
  0,                                      !- X Origin {m}
  0,                                      !- Y Origin {m}
  0,                                      !- Z Origin {m}
  {502329af-7718-4f62-acc9-006f641c72cb}, !- Building Story Name
  {2e541548-e545-4176-bc7a-ce2d0df359bd}; !- Thermal Zone Name

OS:Space,
  {966508a6-c6e2-4bab-bbec-6c603cd48963}, !- Handle
  "North Perim Plnm (B.N8)",              !- Name
  ,                                       !- Space Type Name
  ,                                       !- Default Construction Set Name
  ,                                       !- Default Schedule Set Name
  -0,                                     !- Direction of Relative North {deg}
  0,                                      !- X Origin {m}
  0,                                      !- Y Origin {m}
  0,                                      !- Z Origin {m}
  {502329af-7718-4f62-acc9-006f641c72cb}, !- Building Story Name
  {e22f53bf-063a-452f-a44f-0406c8353800}; !- Thermal Zone Name

OS:Space,
  {49907c30-0abb-4048-8f5b-66a4ca6a819a}, !- Handle
  "West Perim Plnm (B.W9)",               !- Name
  ,                                       !- Space Type Name
  ,                                       !- Default Construction Set Name
  ,                                       !- Default Schedule Set Name
  -0,                                     !- Direction of Relative North {deg}
  0,                                      !- X Origin {m}
  0,                                      !- Y Origin {m}
  0,                                      !- Z Origin {m}
  {502329af-7718-4f62-acc9-006f641c72cb}, !- Building Story Name
  {68a99e7f-c983-4b34-9943-e0036c19a374}; !- Thermal Zone Name

OS:Space,
  {7bbb9eb6-15db-4776-ab6e-f059ff64b109}, !- Handle
  "Core Plnm (B.C10)",                    !- Name
  ,                                       !- Space Type Name
  ,                                       !- Default Construction Set Name
  ,                                       !- Default Schedule Set Name
  -0,                                     !- Direction of Relative North {deg}
  0,                                      !- X Origin {m}
  0,                                      !- Y Origin {m}
  0,                                      !- Z Origin {m}
  {502329af-7718-4f62-acc9-006f641c72cb}, !- Building Story Name
  {e54b3e96-da58-4448-b505-d04789bd3502}; !- Thermal Zone Name

OS:Space,
  {2ffd0841-2170-4f4a-bc85-c58901279b9e}, !- Handle
  "South Perim Spc (G.S11)",              !- Name
  ,                                       !- Space Type Name
  ,                                       !- Default Construction Set Name
  ,                                       !- Default Schedule Set Name
  -0,                                     !- Direction of Relative North {deg}
  0,                                      !- X Origin {m}
  0,                                      !- Y Origin {m}
  0,                                      !- Z Origin {m}
  {208cf2a1-3114-4fc6-bf3a-6b24394da777}, !- Building Story Name
  {3283a279-9aad-4db3-aac6-e002b26f7427}; !- Thermal Zone Name

OS:Space,
  {14067210-3848-42f2-aa8f-eff63ac00498}, !- Handle
  "East Perim Spc (G.E12)",               !- Name
  ,                                       !- Space Type Name
  ,                                       !- Default Construction Set Name
  ,                                       !- Default Schedule Set Name
  -0,                                     !- Direction of Relative North {deg}
  0,                                      !- X Origin {m}
  0,                                      !- Y Origin {m}
  0,                                      !- Z Origin {m}
  {208cf2a1-3114-4fc6-bf3a-6b24394da777}, !- Building Story Name
  {b971372a-5038-4861-94d9-20ce768f6e76}; !- Thermal Zone Name

OS:Space,
  {9e85f07b-5e1a-428b-a9a2-2b5a942e8143}, !- Handle
  "North Perim Spc (G.N13)",              !- Name
  ,                                       !- Space Type Name
  ,                                       !- Default Construction Set Name
  ,                                       !- Default Schedule Set Name
  -0,                                     !- Direction of Relative North {deg}
  0,                                      !- X Origin {m}
  0,                                      !- Y Origin {m}
  0,                                      !- Z Origin {m}
  {208cf2a1-3114-4fc6-bf3a-6b24394da777}, !- Building Story Name
  {74e850f7-b116-43a4-8968-57fe0a89adf0}; !- Thermal Zone Name

OS:Space,
  {0c990f35-0f63-4bfe-93d5-bf9b87906dcb}, !- Handle
  "West Perim Spc (G.W14)",               !- Name
  ,                                       !- Space Type Name
  ,                                       !- Default Construction Set Name
  ,                                       !- Default Schedule Set Name
  -0,                                     !- Direction of Relative North {deg}
  0,                                      !- X Origin {m}
  0,                                      !- Y Origin {m}
  0,                                      !- Z Origin {m}
  {208cf2a1-3114-4fc6-bf3a-6b24394da777}, !- Building Story Name
  {ffbe1e68-5169-4062-a7a3-dd619d2ad1da}; !- Thermal Zone Name

OS:Space,
  {17271b24-9a42-4d40-8475-0b013f393856}, !- Handle
  "Core Spc (G.C15)",                     !- Name
  ,                                       !- Space Type Name
  ,                                       !- Default Construction Set Name
  ,                                       !- Default Schedule Set Name
  -0,                                     !- Direction of Relative North {deg}
  0,                                      !- X Origin {m}
  0,                                      !- Y Origin {m}
  0,                                      !- Z Origin {m}
  {208cf2a1-3114-4fc6-bf3a-6b24394da777}, !- Building Story Name
  {8dff7e41-0002-4940-afb6-1b9f5ac55371}; !- Thermal Zone Name

OS:Space,
  {a0e1173e-c0c7-4a3b-9257-7fbf51fd47c1}, !- Handle
  "South Perim Plnm (G.S16)",             !- Name
  ,                                       !- Space Type Name
  ,                                       !- Default Construction Set Name
  ,                                       !- Default Schedule Set Name
  -0,                                     !- Direction of Relative North {deg}
  0,                                      !- X Origin {m}
  0,                                      !- Y Origin {m}
  0,                                      !- Z Origin {m}
  {208cf2a1-3114-4fc6-bf3a-6b24394da777}, !- Building Story Name
  {02e6e049-c778-42e2-98ed-99aedd6080d2}; !- Thermal Zone Name

OS:Space,
  {0c6049fd-fc03-4e36-8540-5dcea0d2cab4}, !- Handle
  "East Perim Plnm (G.E17)",              !- Name
  ,                                       !- Space Type Name
  ,                                       !- Default Construction Set Name
  ,                                       !- Default Schedule Set Name
  -0,                                     !- Direction of Relative North {deg}
  0,                                      !- X Origin {m}
  0,                                      !- Y Origin {m}
  0,                                      !- Z Origin {m}
  {208cf2a1-3114-4fc6-bf3a-6b24394da777}, !- Building Story Name
  {3e02d606-1480-41d1-b95d-57955b7a084a}; !- Thermal Zone Name

OS:Space,
  {3f2b1b2b-e36a-4b18-abbe-fcf73697b455}, !- Handle
  "North Perim Plnm (G.N18)",             !- Name
  ,                                       !- Space Type Name
  ,                                       !- Default Construction Set Name
  ,                                       !- Default Schedule Set Name
  -0,                                     !- Direction of Relative North {deg}
  0,                                      !- X Origin {m}
  0,                                      !- Y Origin {m}
  0,                                      !- Z Origin {m}
  {208cf2a1-3114-4fc6-bf3a-6b24394da777}, !- Building Story Name
  {8a98daf5-1bef-466f-8ed5-a15d6055b4d5}; !- Thermal Zone Name

OS:Space,
  {eeb12bdf-1f82-4018-8266-7723a8b3d47c}, !- Handle
  "West Perim Plnm (G.W19)",              !- Name
  ,                                       !- Space Type Name
  ,                                       !- Default Construction Set Name
  ,                                       !- Default Schedule Set Name
  -0,                                     !- Direction of Relative North {deg}
  0,                                      !- X Origin {m}
  0,                                      !- Y Origin {m}
  0,                                      !- Z Origin {m}
  {208cf2a1-3114-4fc6-bf3a-6b24394da777}, !- Building Story Name
  {abef3464-80d1-4fd3-ba65-6024ac875003}; !- Thermal Zone Name

OS:Space,
  {8d444725-03a9-49bb-b3d7-7983fc9bf063}, !- Handle
  "Core Plnm (G.C20)",                    !- Name
  ,                                       !- Space Type Name
  ,                                       !- Default Construction Set Name
  ,                                       !- Default Schedule Set Name
  -0,                                     !- Direction of Relative North {deg}
  0,                                      !- X Origin {m}
  0,                                      !- Y Origin {m}
  0,                                      !- Z Origin {m}
  {208cf2a1-3114-4fc6-bf3a-6b24394da777}, !- Building Story Name
  {1046fbe0-396f-413f-a76b-fd790e4dd269}; !- Thermal Zone Name

OS:Space,
  {9204f40f-54c0-4651-9d2b-9a069145b824}, !- Handle
  "South Perim Spc (T.S21)",              !- Name
  ,                                       !- Space Type Name
  ,                                       !- Default Construction Set Name
  ,                                       !- Default Schedule Set Name
  -0,                                     !- Direction of Relative North {deg}
  0,                                      !- X Origin {m}
  0,                                      !- Y Origin {m}
  0,                                      !- Z Origin {m}
  {c56eb27e-52e3-46a9-87bb-707c16839699}, !- Building Story Name
  {921e6bc0-6c18-4efa-9fbd-aa41551b9e42}; !- Thermal Zone Name

OS:Space,
  {d9587c8a-dab9-4484-9faa-f5aba679da97}, !- Handle
  "East Perim Spc (T.E22)",               !- Name
  ,                                       !- Space Type Name
  ,                                       !- Default Construction Set Name
  ,                                       !- Default Schedule Set Name
  -0,                                     !- Direction of Relative North {deg}
  0,                                      !- X Origin {m}
  0,                                      !- Y Origin {m}
  0,                                      !- Z Origin {m}
  {c56eb27e-52e3-46a9-87bb-707c16839699}, !- Building Story Name
  {27055466-c188-48a0-8798-8ffdbe4beb1d}; !- Thermal Zone Name

OS:Space,
  {239414db-293c-4267-9fd8-5a21f450a4c9}, !- Handle
  "North Perim Spc (T.N23)",              !- Name
  ,                                       !- Space Type Name
  ,                                       !- Default Construction Set Name
  ,                                       !- Default Schedule Set Name
  -0,                                     !- Direction of Relative North {deg}
  0,                                      !- X Origin {m}
  0,                                      !- Y Origin {m}
  0,                                      !- Z Origin {m}
  {c56eb27e-52e3-46a9-87bb-707c16839699}, !- Building Story Name
  {526cc57c-9423-4513-808c-6b55e6322bcf}; !- Thermal Zone Name

OS:Space,
  {cb27ff7e-88e4-4edf-bfe7-9162892d72d0}, !- Handle
  "West Perim Spc (T.W24)",               !- Name
  ,                                       !- Space Type Name
  ,                                       !- Default Construction Set Name
  ,                                       !- Default Schedule Set Name
  -0,                                     !- Direction of Relative North {deg}
  0,                                      !- X Origin {m}
  0,                                      !- Y Origin {m}
  0,                                      !- Z Origin {m}
  {c56eb27e-52e3-46a9-87bb-707c16839699}, !- Building Story Name
  {aeb0caf3-be59-4576-9977-7113ba3f9414}; !- Thermal Zone Name

OS:Space,
  {1cafb62c-8bcc-4130-957a-217ef7af204c}, !- Handle
  "Core Spc (T.C25)",                     !- Name
  ,                                       !- Space Type Name
  ,                                       !- Default Construction Set Name
  ,                                       !- Default Schedule Set Name
  -0,                                     !- Direction of Relative North {deg}
  0,                                      !- X Origin {m}
  0,                                      !- Y Origin {m}
  0,                                      !- Z Origin {m}
  {c56eb27e-52e3-46a9-87bb-707c16839699}, !- Building Story Name
  {a27e21bd-2ae8-411e-b29d-936703fa1034}; !- Thermal Zone Name

OS:Space,
  {d1e12d5d-be1b-4e5a-bb4a-2d8e652c040a}, !- Handle
  "South Perim Plnm (T.S26)",             !- Name
  ,                                       !- Space Type Name
  ,                                       !- Default Construction Set Name
  ,                                       !- Default Schedule Set Name
  -0,                                     !- Direction of Relative North {deg}
  0,                                      !- X Origin {m}
  0,                                      !- Y Origin {m}
  0,                                      !- Z Origin {m}
  {c56eb27e-52e3-46a9-87bb-707c16839699}, !- Building Story Name
  {e35ad725-7abd-453f-9f18-d60a1c0238d3}; !- Thermal Zone Name

OS:Space,
  {51ba21b7-66b1-440e-a3ad-a98f386f4c1c}, !- Handle
  "East Perim Plnm (T.E27)",              !- Name
  ,                                       !- Space Type Name
  ,                                       !- Default Construction Set Name
  ,                                       !- Default Schedule Set Name
  -0,                                     !- Direction of Relative North {deg}
  0,                                      !- X Origin {m}
  0,                                      !- Y Origin {m}
  0,                                      !- Z Origin {m}
  {c56eb27e-52e3-46a9-87bb-707c16839699}, !- Building Story Name
  {d57d8024-af10-4600-a8c2-de0bab44d351}; !- Thermal Zone Name

OS:Space,
  {f6de91c8-1f31-4e6d-80f9-7a0dadaa353a}, !- Handle
  "North Perim Plnm (T.N28)",             !- Name
  ,                                       !- Space Type Name
  ,                                       !- Default Construction Set Name
  ,                                       !- Default Schedule Set Name
  -0,                                     !- Direction of Relative North {deg}
  0,                                      !- X Origin {m}
  0,                                      !- Y Origin {m}
  0,                                      !- Z Origin {m}
  {c56eb27e-52e3-46a9-87bb-707c16839699}, !- Building Story Name
  {6fa5f0e4-26c1-4bd1-98b7-6b8be7e33dc0}; !- Thermal Zone Name

OS:Space,
  {a80d4d86-acfb-4d11-8362-d9788659b32c}, !- Handle
  "West Perim Plnm (T.W29)",              !- Name
  ,                                       !- Space Type Name
  ,                                       !- Default Construction Set Name
  ,                                       !- Default Schedule Set Name
  -0,                                     !- Direction of Relative North {deg}
  0,                                      !- X Origin {m}
  0,                                      !- Y Origin {m}
  0,                                      !- Z Origin {m}
  {c56eb27e-52e3-46a9-87bb-707c16839699}, !- Building Story Name
  {359a2bf7-1684-4886-ab1d-8312d0a5f292}; !- Thermal Zone Name

OS:Space,
  {8ca6e603-0973-4baf-9518-febeff5949af}, !- Handle
  "Core Plnm (T.C30)",                    !- Name
  ,                                       !- Space Type Name
  ,                                       !- Default Construction Set Name
  ,                                       !- Default Schedule Set Name
  -0,                                     !- Direction of Relative North {deg}
  0,                                      !- X Origin {m}
  0,                                      !- Y Origin {m}
  0,                                      !- Z Origin {m}
  {c56eb27e-52e3-46a9-87bb-707c16839699}, !- Building Story Name
  {d026d942-7a11-4a8c-85db-75ec3216e1a5}; !- Thermal Zone Name

OS:ThermalZone,
  {fc392469-a357-4bcc-988e-df6f667361dd}, !- Handle
  "South Perim Zn (B.S1)",                !- Name
  ,                                       !- Multiplier
  ,                                       !- Ceiling Height {m}
  ,                                       !- Volume {m3}
  ,                                       !- Floor Area {m2}
  ,                                       !- Zone Inside Convection Algorithm
  ,                                       !- Zone Outside Convection Algorithm
  ,                                       !- Zone Conditioning Equipment List Name
  {4c743412-3b5c-4223-8b35-c503a0be0831}, !- Zone Air Inlet Port List
  {585fe3ae-59de-420a-86cb-1815936ddb53}, !- Zone Air Exhaust Port List
  {adc3c110-6e71-45d8-a89d-e459305ad771}, !- Zone Air Node Name
  ,                                       !- Zone Return Air Node Name
  ,                                       !- Primary Daylighting Control Name
  ,                                       !- Fraction of Zone Controlled by Primary Daylighting Control
  ,                                       !- Secondary Daylighting Control Name
  ,                                       !- Fraction of Zone Controlled by Secondary Daylighting Control
  ,                                       !- Illuminance Map Name
  ,                                       !- Group Rendering Name
  ,                                       !- Thermostat Name
  No;                                     !- Use Ideal Air Loads

OS:Node,
  {6ea131b6-dd0b-432d-8b58-47d778ff9a96}, !- Handle
  Node 1,                                 !- Name
  {adc3c110-6e71-45d8-a89d-e459305ad771}, !- Inlet Port
  ;                                       !- Outlet Port

OS:Connection,
  {adc3c110-6e71-45d8-a89d-e459305ad771}, !- Handle
  {33511725-c729-4f6c-8f00-40938b62ab97}, !- Name
  {fc392469-a357-4bcc-988e-df6f667361dd}, !- Source Object
  11,                                     !- Outlet Port
  {6ea131b6-dd0b-432d-8b58-47d778ff9a96}, !- Target Object
  2;                                      !- Inlet Port

OS:PortList,
  {4c743412-3b5c-4223-8b35-c503a0be0831}, !- Handle
  Port List 1,                            !- Name
  {fc392469-a357-4bcc-988e-df6f667361dd}; !- HVAC Component

OS:PortList,
  {585fe3ae-59de-420a-86cb-1815936ddb53}, !- Handle
  Port List 2,                            !- Name
  {fc392469-a357-4bcc-988e-df6f667361dd}; !- HVAC Component

OS:Sizing:Zone,
  {870b0f99-8cac-47b5-81b4-b7d591a3c6a7}, !- Handle
  {fc392469-a357-4bcc-988e-df6f667361dd}, !- Zone or ZoneList Name
  14,                                     !- Zone Cooling Design Supply Air Temperature {C}
  40,                                     !- Zone Heating Design Supply Air Temperature {C}
  0.0085,                                 !- Zone Cooling Design Supply Air Humidity Ratio {kg-H2O/kg-air}
  0.008,                                  !- Zone Heating Design Supply Air Humidity Ratio {kg-H2O/kg-air}
  ,                                       !- Zone Heating Sizing Factor
  ,                                       !- Zone Cooling Sizing Factor
  DesignDay,                              !- Cooling Design Air Flow Method
  ,                                       !- Cooling Design Air Flow Rate {m3/s}
  ,                                       !- Cooling Minimum Air Flow per Zone Floor Area {m3/s-m2}
  ,                                       !- Cooling Minimum Air Flow {m3/s}
  ,                                       !- Cooling Minimum Air Flow Fraction
  DesignDay,                              !- Heating Design Air Flow Method
  ,                                       !- Heating Design Air Flow Rate {m3/s}
  ,                                       !- Heating Maximum Air Flow per Zone Floor Area {m3/s-m2}
  ,                                       !- Heating Maximum Air Flow {m3/s}
  ,                                       !- Heating Maximum Air Flow Fraction
  ,                                       !- Design Zone Air Distribution Effectiveness in Cooling Mode
  ;                                       !- Design Zone Air Distribution Effectiveness in Heating Mode

OS:ZoneHVAC:EquipmentList,
  {bea0f6b4-8d27-4bc9-9c95-cae197b49c67}, !- Handle
  Zone HVAC Equipment List 1,             !- Name
  {fc392469-a357-4bcc-988e-df6f667361dd}; !- Thermal Zone

OS:ThermalZone,
  {a45ab56c-d0fd-4211-bcc5-d9121adcffd4}, !- Handle
  "South Perim Pl Zn (B.S6)",             !- Name
  ,                                       !- Multiplier
  ,                                       !- Ceiling Height {m}
  ,                                       !- Volume {m3}
  ,                                       !- Floor Area {m2}
  ,                                       !- Zone Inside Convection Algorithm
  ,                                       !- Zone Outside Convection Algorithm
  ,                                       !- Zone Conditioning Equipment List Name
  {2d77366e-d98e-4cf9-9318-b78b03bbe842}, !- Zone Air Inlet Port List
  {b970657f-70de-42e7-b6e2-fa0059bbcb4c}, !- Zone Air Exhaust Port List
  {c5329f7c-4b53-4b64-86eb-afec37bb17b6}, !- Zone Air Node Name
  ,                                       !- Zone Return Air Node Name
  ,                                       !- Primary Daylighting Control Name
  ,                                       !- Fraction of Zone Controlled by Primary Daylighting Control
  ,                                       !- Secondary Daylighting Control Name
  ,                                       !- Fraction of Zone Controlled by Secondary Daylighting Control
  ,                                       !- Illuminance Map Name
  ,                                       !- Group Rendering Name
  ,                                       !- Thermostat Name
  No;                                     !- Use Ideal Air Loads

OS:Node,
  {6990b250-0f57-463f-9df8-71118158c1e5}, !- Handle
  Node 2,                                 !- Name
  {c5329f7c-4b53-4b64-86eb-afec37bb17b6}, !- Inlet Port
  ;                                       !- Outlet Port

OS:Connection,
  {c5329f7c-4b53-4b64-86eb-afec37bb17b6}, !- Handle
  {00f0046f-c286-43ab-97a5-969be4445715}, !- Name
  {a45ab56c-d0fd-4211-bcc5-d9121adcffd4}, !- Source Object
  11,                                     !- Outlet Port
  {6990b250-0f57-463f-9df8-71118158c1e5}, !- Target Object
  2;                                      !- Inlet Port

OS:PortList,
  {2d77366e-d98e-4cf9-9318-b78b03bbe842}, !- Handle
  Port List 3,                            !- Name
  {a45ab56c-d0fd-4211-bcc5-d9121adcffd4}; !- HVAC Component

OS:PortList,
  {b970657f-70de-42e7-b6e2-fa0059bbcb4c}, !- Handle
  Port List 4,                            !- Name
  {a45ab56c-d0fd-4211-bcc5-d9121adcffd4}; !- HVAC Component

OS:Sizing:Zone,
  {a9d78025-181f-4a28-95ff-de0fced967f6}, !- Handle
  {a45ab56c-d0fd-4211-bcc5-d9121adcffd4}, !- Zone or ZoneList Name
  14,                                     !- Zone Cooling Design Supply Air Temperature {C}
  40,                                     !- Zone Heating Design Supply Air Temperature {C}
  0.0085,                                 !- Zone Cooling Design Supply Air Humidity Ratio {kg-H2O/kg-air}
  0.008,                                  !- Zone Heating Design Supply Air Humidity Ratio {kg-H2O/kg-air}
  ,                                       !- Zone Heating Sizing Factor