
OS:Version,
  {fc0ce8c4-6164-47e1-abca-889fa1159572}, !- Handle
  1.7.0;                                  !- Version Identifier

OS:BuildingStory,
  {ca9dd9d2-8ec7-434c-9e35-ba70d825491c}, !- Handle
  "Bottom Below-Grade Flr",               !- Name
  ,                                       !- Nominal Z Coordinate {m}
  ,                                       !- Nominal Floor to Floor Height {m}
  ,                                       !- Default Construction Set Name
  ,                                       !- Default Schedule Set Name
  ;                                       !- Group Rendering Name

OS:BuildingStory,
  {a341c80d-50ac-4675-a4a2-1bf6f18876a6}, !- Handle
  "Upper Below-Grade Flr",                !- Name
  ,                                       !- Nominal Z Coordinate {m}
  ,                                       !- Nominal Floor to Floor Height {m}
  ,                                       !- Default Construction Set Name
  ,                                       !- Default Schedule Set Name
  ;                                       !- Group Rendering Name

OS:BuildingStory,
  {d1263ea8-0100-42e1-8a52-8469b070ca4c}, !- Handle
  "Ground Flr",                           !- Name
  ,                                       !- Nominal Z Coordinate {m}
  ,                                       !- Nominal Floor to Floor Height {m}
  ,                                       !- Default Construction Set Name
  ,                                       !- Default Schedule Set Name
  ;                                       !- Group Rendering Name

OS:BuildingStory,
  {29d6fad1-8a1b-4ddf-b034-01feb6b283e9}, !- Handle
  "Above-Grade Flr",                      !- Name
  ,                                       !- Nominal Z Coordinate {m}
  ,                                       !- Nominal Floor to Floor Height {m}
  ,                                       !- Default Construction Set Name
  ,                                       !- Default Schedule Set Name
  ;                                       !- Group Rendering Name

OS:BuildingStory,
  {1ceabb26-2aa6-4fb6-8b41-f0225e76bd4e}, !- Handle
  "Top Abv-Grade Flr",                    !- Name
  ,                                       !- Nominal Z Coordinate {m}
  ,                                       !- Nominal Floor to Floor Height {m}
  ,                                       !- Default Construction Set Name
  ,                                       !- Default Schedule Set Name
  ;                                       !- Group Rendering Name

OS:Space,
  {a0e7108d-6846-46cf-bc42-331bd4f8d97f}, !- Handle
  "NW Perim Spc (BB.NW1)",                !- Name
  ,                                       !- Space Type Name
  ,                                       !- Default Construction Set Name
  ,                                       !- Default Schedule Set Name
  -0,                                     !- Direction of Relative North {deg}
  0,                                      !- X Origin {m}
  0,                                      !- Y Origin {m}
  0,                                      !- Z Origin {m}
  {ca9dd9d2-8ec7-434c-9e35-ba70d825491c}, !- Building Story Name
  {f67d17b7-5107-4b6a-a281-dfabfb2176cb}; !- Thermal Zone Name

OS:Space,
  {b294795a-595f-427d-bba3-e669a1f83ef4}, !- Handle
  "WSW Perim Spc (BB.WSW2)",              !- Name
  ,                                       !- Space Type Name
  ,                                       !- Default Construction Set Name
  ,                                       !- Default Schedule Set Name
  -0,                                     !- Direction of Relative North {deg}
  0,                                      !- X Origin {m}
  0,                                      !- Y Origin {m}
  0,                                      !- Z Origin {m}
  {ca9dd9d2-8ec7-434c-9e35-ba70d825491c}, !- Building Story Name
  {fbef2aeb-7a9a-45e3-bdf9-8b6069e92b17}; !- Thermal Zone Name

OS:Space,
  {a343a02c-73c4-4084-80c0-fa96ab2fba0a}, !- Handle
  "South Perim Spc (BB.S3)",              !- Name
  ,                                       !- Space Type Name
  ,                                       !- Default Construction Set Name
  ,                                       !- Default Schedule Set Name
  -0,                                     !- Direction of Relative North {deg}
  0,                                      !- X Origin {m}
  0,                                      !- Y Origin {m}
  0,                                      !- Z Origin {m}
  {ca9dd9d2-8ec7-434c-9e35-ba70d825491c}, !- Building Story Name
  {e528af3f-cfb5-46ad-bc92-db36d26398b8}; !- Thermal Zone Name

OS:Space,
  {ea06c34b-5604-4e5f-b23b-6e0a19d76d02}, !- Handle
  "East Perim Spc (BB.E4)",               !- Name
  ,                                       !- Space Type Name
  ,                                       !- Default Construction Set Name
  ,                                       !- Default Schedule Set Name
  -0,                                     !- Direction of Relative North {deg}
  0,                                      !- X Origin {m}
  0,                                      !- Y Origin {m}
  0,                                      !- Z Origin {m}
  {ca9dd9d2-8ec7-434c-9e35-ba70d825491c}, !- Building Story Name
  {7a6307a3-b9b8-451d-a8b7-7dad9b0c0229}; !- Thermal Zone Name

OS:Space,
  {20223e0d-ba27-48f0-8348-641dc799980b}, !- Handle
  "NNE Perim Spc (BB.NNE5)",              !- Name
  ,                                       !- Space Type Name
  ,                                       !- Default Construction Set Name
  ,                                       !- Default Schedule Set Name
  -0,                                     !- Direction of Relative North {deg}
  0,                                      !- X Origin {m}
  0,                                      !- Y Origin {m}
  0,                                      !- Z Origin {m}
  {ca9dd9d2-8ec7-434c-9e35-ba70d825491c}, !- Building Story Name
  {593d84aa-68d2-4320-8abd-7a026932dc64}; !- Thermal Zone Name

OS:Space,
  {e888ff4c-d069-4cf6-9539-d7338f224c15}, !- Handle
  "Core Spc (BB.C6)",                     !- Name
  ,                                       !- Space Type Name
  ,                                       !- Default Construction Set Name
  ,                                       !- Default Schedule Set Name
  -0,                                     !- Direction of Relative North {deg}
  0,                                      !- X Origin {m}
  0,                                      !- Y Origin {m}
  0,                                      !- Z Origin {m}
  {ca9dd9d2-8ec7-434c-9e35-ba70d825491c}, !- Building Story Name
  {9b63c9fe-1a3e-4b90-9b1f-0836a5c2e457}; !- Thermal Zone Name

OS:Space,
  {a15cffce-9cc2-46ff-9c98-4f7b3c210f69}, !- Handle
  "NW Perim Plnm (BB.NW7)",               !- Name
  ,                                       !- Space Type Name
  ,                                       !- Default Construction Set Name
  ,                                       !- Default Schedule Set Name
  -0,                                     !- Direction of Relative North {deg}
  0,                                      !- X Origin {m}
  0,                                      !- Y Origin {m}
  0,                                      !- Z Origin {m}
  {ca9dd9d2-8ec7-434c-9e35-ba70d825491c}, !- Building Story Name
  {1e36fe7c-2842-42c7-b82a-22d406e52ed8}; !- Thermal Zone Name

OS:Space,
  {bf864ae7-62ba-45db-9ee9-b601e1490446}, !- Handle
  "WSW Perim Plnm (BB.WSW8)",             !- Name
  ,                                       !- Space Type Name
  ,                                       !- Default Construction Set Name
  ,                                       !- Default Schedule Set Name
  -0,                                     !- Direction of Relative North {deg}
  0,                                      !- X Origin {m}
  0,                                      !- Y Origin {m}
  0,                                      !- Z Origin {m}
  {ca9dd9d2-8ec7-434c-9e35-ba70d825491c}, !- Building Story Name
  {8023bb04-8990-49fd-b7c3-f3be06c653e4}; !- Thermal Zone Name

OS:Space,
  {c6c10119-ac21-4f28-a404-ac6d2fa70e4e}, !- Handle
  "South Perim Plnm (BB.S9)",             !- Name
  ,                                       !- Space Type Name
  ,                                       !- Default Construction Set Name
  ,                                       !- Default Schedule Set Name
  -0,                                     !- Direction of Relative North {deg}
  0,                                      !- X Origin {m}
  0,                                      !- Y Origin {m}
  0,                                      !- Z Origin {m}
  {ca9dd9d2-8ec7-434c-9e35-ba70d825491c}, !- Building Story Name
  {90a61d7d-cc71-4e30-a27c-8679a89ef41d}; !- Thermal Zone Name

OS:Space,
  {5dac004f-5984-4a27-9abb-22de78e7ce20}, !- Handle
  "East Perim Plnm (BB.E10)",             !- Name
  ,                                       !- Space Type Name
  ,                                       !- Default Construction Set Name
  ,                                       !- Default Schedule Set Name
  -0,                                     !- Direction of Relative North {deg}
  0,                                      !- X Origin {m}
  0,                                      !- Y Origin {m}
  0,                                      !- Z Origin {m}
  {ca9dd9d2-8ec7-434c-9e35-ba70d825491c}, !- Building Story Name
  {0746c5d5-0698-4f6c-bfbe-93b5d4b92c85}; !- Thermal Zone Name

OS:Space,
  {9491cb97-fdd1-420a-8359-f4e7100f65ef}, !- Handle
  "NNE Perim Plnm (BB.NNE11)",            !- Name
  ,                                       !- Space Type Name
  ,                                       !- Default Construction Set Name
  ,                                       !- Default Schedule Set Name
  -0,                                     !- Direction of Relative North {deg}
  0,                                      !- X Origin {m}
  0,                                      !- Y Origin {m}
  0,                                      !- Z Origin {m}
  {ca9dd9d2-8ec7-434c-9e35-ba70d825491c}, !- Building Story Name
  {8a43474b-e6d3-4087-aaf7-58fd32276dba}; !- Thermal Zone Name

OS:Space,
  {7bfbfb5d-e7a1-44e9-960f-915c4f5ea9e8}, !- Handle
  "Core Plnm (BB.C12)",                   !- Name
  ,                                       !- Space Type Name
  ,                                       !- Default Construction Set Name
  ,                                       !- Default Schedule Set Name
  -0,                                     !- Direction of Relative North {deg}
  0,                                      !- X Origin {m}
  0,                                      !- Y Origin {m}
  0,                                      !- Z Origin {m}
  {ca9dd9d2-8ec7-434c-9e35-ba70d825491c}, !- Building Story Name
  {57cfa2ee-6f61-4143-a4ef-8d47a01bc5fe}; !- Thermal Zone Name

OS:Space,
  {6d7bd4e6-0ba8-434f-beb4-675bd8acd796}, !- Handle
  "NW Perim Spc (UB.NW13)",               !- Name
  ,                                       !- Space Type Name
  ,                                       !- Default Construction Set Name
  ,                                       !- Default Schedule Set Name
  -0,                                     !- Direction of Relative North {deg}
  0,                                      !- X Origin {m}
  0,                                      !- Y Origin {m}
  0,                                      !- Z Origin {m}
  {a341c80d-50ac-4675-a4a2-1bf6f18876a6}, !- Building Story Name
  {52a562b6-4a06-4a1e-9c6b-944db1900c02}; !- Thermal Zone Name

OS:Space,
  {2ce949c6-d8ec-486c-828d-1428eca0618b}, !- Handle
  "WSW Perim Spc (UB.WSW14)",             !- Name
  ,                                       !- Space Type Name
  ,                                       !- Default Construction Set Name
  ,                                       !- Default Schedule Set Name
  -0,                                     !- Direction of Relative North {deg}
  0,                                      !- X Origin {m}
  0,                                      !- Y Origin {m}
  0,                                      !- Z Origin {m}
  {a341c80d-50ac-4675-a4a2-1bf6f18876a6}, !- Building Story Name
  {0c61610b-837f-4880-83f6-d6a5e75b9e8f}; !- Thermal Zone Name

OS:Space,
  {2e0ff269-6106-441b-86fa-f7fcdfb2820e}, !- Handle
  "South Perim Spc (UB.S15)",             !- Name
  ,                                       !- Space Type Name
  ,                                       !- Default Construction Set Name
  ,                                       !- Default Schedule Set Name
  -0,                                     !- Direction of Relative North {deg}
  0,                                      !- X Origin {m}
  0,                                      !- Y Origin {m}
  0,                                      !- Z Origin {m}
  {a341c80d-50ac-4675-a4a2-1bf6f18876a6}, !- Building Story Name
  {854260bd-cc83-441b-b1a5-7c8f53c2d8bc}; !- Thermal Zone Name

OS:Space,
  {2091457c-8dce-4c1a-92bb-427b02717662}, !- Handle
  "East Perim Spc (UB.E16)",              !- Name
  ,                                       !- Space Type Name
  ,                                       !- Default Construction Set Name
  ,                                       !- Default Schedule Set Name
  -0,                                     !- Direction of Relative North {deg}
  0,                                      !- X Origin {m}
  0,                                      !- Y Origin {m}
  0,                                      !- Z Origin {m}
  {a341c80d-50ac-4675-a4a2-1bf6f18876a6}, !- Building Story Name
  {169300b1-4893-41e2-9955-825a37fab5b9}; !- Thermal Zone Name

OS:Space,
  {b1b90ba5-0fed-466b-82a9-01813e0f887d}, !- Handle
  "NNE Perim Spc (UB.NNE17)",             !- Name
  ,                                       !- Space Type Name
  ,                                       !- Default Construction Set Name
  ,                                       !- Default Schedule Set Name
  -0,                                     !- Direction of Relative North {deg}
  0,                                      !- X Origin {m}
  0,                                      !- Y Origin {m}
  0,                                      !- Z Origin {m}
  {a341c80d-50ac-4675-a4a2-1bf6f18876a6}, !- Building Story Name
  {d4fbc228-a4b4-4164-8b53-100635558702}; !- Thermal Zone Name

OS:Space,
  {2efb4958-611e-4493-a436-874ca6a43ba3}, !- Handle
  "Core Spc (UB.C18)",                    !- Name
  ,                                       !- Space Type Name
  ,                                       !- Default Construction Set Name
  ,                                       !- Default Schedule Set Name
  -0,                                     !- Direction of Relative North {deg}
  0,                                      !- X Origin {m}
  0,                                      !- Y Origin {m}
  0,                                      !- Z Origin {m}
  {a341c80d-50ac-4675-a4a2-1bf6f18876a6}, !- Building Story Name
  {eb6a7de6-2cd1-4ed2-a148-763e2a8f8c1f}; !- Thermal Zone Name

OS:Space,
  {9a42b20f-e0c9-4421-88e7-67d3c93a928d}, !- Handle
  "NW Perim Plnm (UB.NW19)",              !- Name
  ,                                       !- Space Type Name
  ,                                       !- Default Construction Set Name
  ,                                       !- Default Schedule Set Name
  -0,                                     !- Direction of Relative North {deg}
  0,                                      !- X Origin {m}
  0,                                      !- Y Origin {m}
  0,                                      !- Z Origin {m}
  {a341c80d-50ac-4675-a4a2-1bf6f18876a6}, !- Building Story Name
  {1b1c202a-1c2d-4773-9ab6-77d6cd62dfe4}; !- Thermal Zone Name

OS:Space,
  {7631fec3-99ca-4559-8fde-36fee7332464}, !- Handle
  "WSW Perim Plnm (UB.WSW20)",            !- Name
  ,                                       !- Space Type Name
  ,                                       !- Default Construction Set Name
  ,                                       !- Default Schedule Set Name
  -0,                                     !- Direction of Relative North {deg}
  0,                                      !- X Origin {m}
  0,                                      !- Y Origin {m}
  0,                                      !- Z Origin {m}
  {a341c80d-50ac-4675-a4a2-1bf6f18876a6}, !- Building Story Name
  {2a0f7019-63cb-4045-8d6c-b3169d2ffe65}; !- Thermal Zone Name

OS:Space,
  {11fc8831-3b3c-415c-bafe-f889f80d5508}, !- Handle
  "South Perim Plnm (UB.S21)",            !- Name
  ,                                       !- Space Type Name
  ,                                       !- Default Construction Set Name
  ,                                       !- Default Schedule Set Name
  -0,                                     !- Direction of Relative North {deg}
  0,                                      !- X Origin {m}
  0,                                      !- Y Origin {m}
  0,                                      !- Z Origin {m}
  {a341c80d-50ac-4675-a4a2-1bf6f18876a6}, !- Building Story Name
  {a31c2a97-cfc5-484a-a310-301ac038915b}; !- Thermal Zone Name

OS:Space,
  {29013fb0-9871-4979-9b4a-328da100f45c}, !- Handle
  "East Perim Plnm (UB.E22)",             !- Name
  ,                                       !- Space Type Name
  ,                                       !- Default Construction Set Name
  ,                                       !- Default Schedule Set Name
  -0,                                     !- Direction of Relative North {deg}
  0,                                      !- X Origin {m}
  0,                                      !- Y Origin {m}
  0,                                      !- Z Origin {m}
  {a341c80d-50ac-4675-a4a2-1bf6f18876a6}, !- Building Story Name
  {b85d3909-28a8-4328-b8e2-b018d31bee51}; !- Thermal Zone Name

OS:Space,
  {9148824b-90b6-4c76-bd59-fc797b42f885}, !- Handle
  "NNE Perim Plnm (UB.NNE23)",            !- Name
  ,                                       !- Space Type Name
  ,                                       !- Default Construction Set Name
  ,                                       !- Default Schedule Set Name
  -0,                                     !- Direction of Relative North {deg}
  0,                                      !- X Origin {m}
  0,                                      !- Y Origin {m}
  0,                                      !- Z Origin {m}
  {a341c80d-50ac-4675-a4a2-1bf6f18876a6}, !- Building Story Name
  {3b89fc2f-8995-4df9-8bef-a9795bc24324}; !- Thermal Zone Name

OS:Space,
  {414738bc-dec8-4211-9ad2-b6ccacd6ea16}, !- Handle
  "Core Plnm (UB.C24)",                   !- Name
  ,                                       !- Space Type Name
  ,                                       !- Default Construction Set Name
  ,                                       !- Default Schedule Set Name
  -0,                                     !- Direction of Relative North {deg}
  0,                                      !- X Origin {m}
  0,                                      !- Y Origin {m}
  0,                                      !- Z Origin {m}
  {a341c80d-50ac-4675-a4a2-1bf6f18876a6}, !- Building Story Name
  {441a2832-9c04-4803-abc1-290b6ad74d1e}; !- Thermal Zone Name

OS:Space,
  {a192218e-ea01-4bfa-929e-2794b17b25c6}, !- Handle
  "NW Perim Spc (G.NW25)",                !- Name
  ,                                       !- Space Type Name
  ,                                       !- Default Construction Set Name
  ,                                       !- Default Schedule Set Name
  -0,                                     !- Direction of Relative North {deg}
  0,                                      !- X Origin {m}
  0,                                      !- Y Origin {m}
  0,                                      !- Z Origin {m}
  {d1263ea8-0100-42e1-8a52-8469b070ca4c}, !- Building Story Name
  {87cda625-c716-4ab8-afb5-3216b4d58db6}; !- Thermal Zone Name

OS:Space,
  {0028b79e-d57e-422a-bbd7-1e90e00680b3}, !- Handle
  "WSW Perim Spc (G.WSW26)",              !- Name
  ,                                       !- Space Type Name
  ,                                       !- Default Construction Set Name
  ,                                       !- Default Schedule Set Name
  -0,                                     !- Direction of Relative North {deg}
  0,                                      !- X Origin {m}
  0,                                      !- Y Origin {m}
  0,                                      !- Z Origin {m}
  {d1263ea8-0100-42e1-8a52-8469b070ca4c}, !- Building Story Name
  {f1aef2a5-11d3-4a98-bb02-7ca668e85f69}; !- Thermal Zone Name

OS:Space,
  {a4e4bf04-01d9-4d99-9628-7d253cb5498c}, !- Handle
  "South Perim Spc (G.S27)",              !- Name
  ,                                       !- Space Type Name
  ,                                       !- Default Construction Set Name
  ,                                       !- Default Schedule Set Name
  -0,                                     !- Direction of Relative North {deg}
  0,                                      !- X Origin {m}
  0,                                      !- Y Origin {m}
  0,                                      !- Z Origin {m}
  {d1263ea8-0100-42e1-8a52-8469b070ca4c}, !- Building Story Name
  {a28534b2-49df-44fd-ad97-4148abba40f7}; !- Thermal Zone Name

OS:Space,
  {bca5a3b9-2020-448a-9dc2-c6d2b6f0a55b}, !- Handle
  "East Perim Spc (G.E28)",               !- Name
  ,                                       !- Space Type Name
  ,                                       !- Default Construction Set Name
  ,                                       !- Default Schedule Set Name
  -0,                                     !- Direction of Relative North {deg}
  0,                                      !- X Origin {m}
  0,                                      !- Y Origin {m}
  0,                                      !- Z Origin {m}
  {d1263ea8-0100-42e1-8a52-8469b070ca4c}, !- Building Story Name
  {801e0717-2f8b-4ca6-a17d-898bd96de818}; !- Thermal Zone Name

OS:Space,
  {2daa8603-7a8c-430f-9243-165135c0f132}, !- Handle
  "NNE Perim Spc (G.NNE29)",              !- Name
  ,                                       !- Space Type Name
  ,                                       !- Default Construction Set Name
  ,                                       !- Default Schedule Set Name
  -0,                                     !- Direction of Relative North {deg}
  0,                                      !- X Origin {m}
  0,                                      !- Y Origin {m}
  0,                                      !- Z Origin {m}
  {d1263ea8-0100-42e1-8a52-8469b070ca4c}, !- Building Story Name
  {16d61a92-4316-4525-96e5-f15172b3d452}; !- Thermal Zone Name

OS:Space,
  {04ff191f-1915-4c4a-b597-d17780092cee}, !- Handle
  "Core Spc (G.C30)",                     !- Name
  ,                                       !- Space Type Name
  ,                                       !- Default Construction Set Name
  ,                                       !- Default Schedule Set Name
  -0,                                     !- Direction of Relative North {deg}
  0,                                      !- X Origin {m}
  0,                                      !- Y Origin {m}
  0,                                      !- Z Origin {m}
  {d1263ea8-0100-42e1-8a52-8469b070ca4c}, !- Building Story Name
  {3279f2e4-66e4-4bc5-85c8-298439be351e}; !- Thermal Zone Name

OS:Space,
  {da2dc9ca-c7d2-424b-9230-0b8cb04dcd1d}, !- Handle
  "NW Perim Plnm (G.NW31)",               !- Name
  ,                                       !- Space Type Name
  ,                                       !- Default Construction Set Name
  ,                                       !- Default Schedule Set Name
  -0,                                     !- Direction of Relative North {deg}
  0,                                      !- X Origin {m}
  0,                                      !- Y Origin {m}
  0,                                      !- Z Origin {m}
  {d1263ea8-0100-42e1-8a52-8469b070ca4c}, !- Building Story Name
  {c4034164-a6c3-4b3f-9e1d-745db4a34b95}; !- Thermal Zone Name

OS:Space,
  {bbe75635-b6ca-43a5-8206-47b71d502318}, !- Handle
  "WSW Perim Plnm (G.WSW32)",             !- Name
  ,                                       !- Space Type Name
  ,                                       !- Default Construction Set Name
  ,                                       !- Default Schedule Set Name
  -0,                                     !- Direction of Relative North {deg}
  0,                                      !- X Origin {m}
  0,                                      !- Y Origin {m}
  0,                                      !- Z Origin {m}
  {d1263ea8-0100-42e1-8a52-8469b070ca4c}, !- Building Story Name
  {e3ab4172-20e7-4329-905c-4631b0c8e632}; !- Thermal Zone Name

OS:Space,
  {a69ee8c9-dc20-444d-b133-9be09f398482}, !- Handle
  "South Perim Plnm (G.S33)",             !- Name
  ,                                       !- Space Type Name
  ,                                       !- Default Construction Set Name
  ,                                       !- Default Schedule Set Name
  -0,                                     !- Direction of Relative North {deg}
  0,                                      !- X Origin {m}
  0,                                      !- Y Origin {m}
  0,                                      !- Z Origin {m}
  {d1263ea8-0100-42e1-8a52-8469b070ca4c}, !- Building Story Name
  {bfcbd0ee-fa3a-4e3e-8294-c7c206f231da}; !- Thermal Zone Name

OS:Space,
  {f4a58604-965e-40e4-930e-462c076a5ba8}, !- Handle
  "East Perim Plnm (G.E34)",              !- Name
  ,                                       !- Space Type Name
  ,                                       !- Default Construction Set Name
  ,                                       !- Default Schedule Set Name
  -0,                                     !- Direction of Relative North {deg}
  0,                                      !- X Origin {m}
  0,                                      !- Y Origin {m}
  0,                                      !- Z Origin {m}
  {d1263ea8-0100-42e1-8a52-8469b070ca4c}, !- Building Story Name
  {5378b310-5154-48f7-95ba-a615c8d09c75}; !- Thermal Zone Name

OS:Space,
  {a8b5dcf7-ea5a-4635-89b9-bd8153b78de3}, !- Handle
  "NNE Perim Plnm (G.NNE35)",             !- Name
  ,                                       !- Space Type Name
  ,                                       !- Default Construction Set Name
  ,                                       !- Default Schedule Set Name
  -0,                                     !- Direction of Relative North {deg}
  0,                                      !- X Origin {m}
  0,                                      !- Y Origin {m}
  0,                                      !- Z Origin {m}
  {d1263ea8-0100-42e1-8a52-8469b070ca4c}, !- Building Story Name
  {f8f04b1b-e3fa-4cc7-a034-f3192c1375bd}; !- Thermal Zone Name

OS:Space,
  {15c0a30e-b075-4e5e-bff6-d8da85e4627d}, !- Handle
  "Core Plnm (G.C36)",                    !- Name
  ,                                       !- Space Type Name
  ,                                       !- Default Construction Set Name
  ,                                       !- Default Schedule Set Name
  -0,                                     !- Direction of Relative North {deg}
  0,                                      !- X Origin {m}
  0,                                      !- Y Origin {m}
  0,                                      !- Z Origin {m}
  {d1263ea8-0100-42e1-8a52-8469b070ca4c}, !- Building Story Name
  {0a0e84e1-f379-4302-b7dc-70b248dfb0ee}; !- Thermal Zone Name

OS:Space,
  {5b7b27a2-ba7d-4d96-9b23-a02f14adf009}, !- Handle
  "NW Perim Spc (M.NW37)",                !- Name
  ,                                       !- Space Type Name
  ,                                       !- Default Construction Set Name
  ,                                       !- Default Schedule Set Name
  -0,                                     !- Direction of Relative North {deg}
  0,                                      !- X Origin {m}
  0,                                      !- Y Origin {m}
  0,                                      !- Z Origin {m}
  {29d6fad1-8a1b-4ddf-b034-01feb6b283e9}, !- Building Story Name
  {56f5feaa-6c5d-4361-bc6d-106bf0df49d4}; !- Thermal Zone Name

OS:Space,
  {17800414-b8b1-40b9-ae1b-26d3085aa8ba}, !- Handle
  "WSW Perim Spc (M.WSW38)",              !- Name
  ,                                       !- Space Type Name
  ,                                       !- Default Construction Set Name
  ,                                       !- Default Schedule Set Name
  -0,                                     !- Direction of Relative North {deg}
  0,                                      !- X Origin {m}
  0,                                      !- Y Origin {m}
  0,                                      !- Z Origin {m}
  {29d6fad1-8a1b-4ddf-b034-01feb6b283e9}, !- Building Story Name
  {1d6126ee-a8b9-4814-bbf4-6c7d4d36f06b}; !- Thermal Zone Name

OS:Space,
  {3971b05d-7717-4f89-9d29-2252850225a3}, !- Handle
  "South Perim Spc (M.S39)",              !- Name
  ,                                       !- Space Type Name
  ,                                       !- Default Construction Set Name
  ,                                       !- Default Schedule Set Name
  -0,                                     !- Direction of Relative North {deg}
  0,                                      !- X Origin {m}
  0,                                      !- Y Origin {m}
  0,                                      !- Z Origin {m}
  {29d6fad1-8a1b-4ddf-b034-01feb6b283e9}, !- Building Story Name
  {df30fb2a-2402-49db-8985-7bd501f98c14}; !- Thermal Zone Name

OS:Space,
  {46e63ed9-602b-4c5b-809e-e58bb25f545e}, !- Handle
  "East Perim Spc (M.E40)",               !- Name