
OS:Version,
  {535e7601-35b7-4fe4-ac6e-49958ee08196}, !- Handle
  1.7.0;                                  !- Version Identifier

OS:BuildingStory,
  {4f7c3993-ccf2-440d-8267-429b519076c5}, !- Handle
  "Bottom Below-Grade Flr",               !- Name
  ,                                       !- Nominal Z Coordinate {m}
  ,                                       !- Nominal Floor to Floor Height {m}
  ,                                       !- Default Construction Set Name
  ,                                       !- Default Schedule Set Name
  ;                                       !- Group Rendering Name

OS:BuildingStory,
  {da5683ee-cd54-4a54-b99f-02dc4ecc67e6}, !- Handle
  "Upper Below-Grade Flr",                !- Name
  ,                                       !- Nominal Z Coordinate {m}
  ,                                       !- Nominal Floor to Floor Height {m}
  ,                                       !- Default Construction Set Name
  ,                                       !- Default Schedule Set Name
  ;                                       !- Group Rendering Name

OS:BuildingStory,
  {3452e3c6-af79-420d-a3ab-cdabc91ee5ae}, !- Handle
  "Ground Flr",                           !- Name
  ,                                       !- Nominal Z Coordinate {m}
  ,                                       !- Nominal Floor to Floor Height {m}
  ,                                       !- Default Construction Set Name
  ,                                       !- Default Schedule Set Name
  ;                                       !- Group Rendering Name

OS:BuildingStory,
  {a3d44e5f-96a5-4d6f-8e1b-2da1549c2696}, !- Handle
  "Above-Grade Flr",                      !- Name
  ,                                       !- Nominal Z Coordinate {m}
  ,                                       !- Nominal Floor to Floor Height {m}
  ,                                       !- Default Construction Set Name
  ,                                       !- Default Schedule Set Name
  ;                                       !- Group Rendering Name

OS:BuildingStory,
  {951f0f84-4d50-4277-9fb5-ffe2ed156989}, !- Handle
  "Top Abv-Grade Flr",                    !- Name
  ,                                       !- Nominal Z Coordinate {m}
  ,                                       !- Nominal Floor to Floor Height {m}
  ,                                       !- Default Construction Set Name
  ,                                       !- Default Schedule Set Name
  ;                                       !- Group Rendering Name

OS:Space,
  {9ce9a119-3d84-4af6-ac89-0e5826b3a95a}, !- Handle
  "NW Perim Spc (BB.NW1)",                !- Name
  ,                                       !- Space Type Name
  ,                                       !- Default Construction Set Name
  ,                                       !- Default Schedule Set Name
  -0,                                     !- Direction of Relative North {deg}
  0,                                      !- X Origin {m}
  0,                                      !- Y Origin {m}
  0,                                      !- Z Origin {m}
  {4f7c3993-ccf2-440d-8267-429b519076c5}, !- Building Story Name
  {6598cd5a-d412-4989-9ad0-6eaaa6ca3cb5}; !- Thermal Zone Name

OS:Space,
  {3a985dbc-af66-4bfb-bad7-f78bf1368a92}, !- Handle
  "SSW Perim Spc (BB.SSW2)",              !- Name
  ,                                       !- Space Type Name
  ,                                       !- Default Construction Set Name
  ,                                       !- Default Schedule Set Name
  -0,                                     !- Direction of Relative North {deg}
  0,                                      !- X Origin {m}
  0,                                      !- Y Origin {m}
  0,                                      !- Z Origin {m}
  {4f7c3993-ccf2-440d-8267-429b519076c5}, !- Building Story Name
  {a3193de0-2f76-4498-a6f1-e96111b6b540}; !- Thermal Zone Name

OS:Space,
  {79dd7681-f57e-4e60-97c2-41479b73262a}, !- Handle
  "North Perim Spc (BB.N3)",              !- Name
  ,                                       !- Space Type Name
  ,                                       !- Default Construction Set Name
  ,                                       !- Default Schedule Set Name
  -0,                                     !- Direction of Relative North {deg}
  0,                                      !- X Origin {m}
  0,                                      !- Y Origin {m}
  0,                                      !- Z Origin {m}
  {4f7c3993-ccf2-440d-8267-429b519076c5}, !- Building Story Name
  {331a8953-57e9-478b-b5a3-8aaefedd9fa6}; !- Thermal Zone Name

OS:Space,
  {4203139a-294b-478a-ad53-6b2a1360e3e5}, !- Handle
  "SSW Perim Spc (BB.SSW4)",              !- Name
  ,                                       !- Space Type Name
  ,                                       !- Default Construction Set Name
  ,                                       !- Default Schedule Set Name
  -0,                                     !- Direction of Relative North {deg}
  0,                                      !- X Origin {m}
  0,                                      !- Y Origin {m}
  0,                                      !- Z Origin {m}
  {4f7c3993-ccf2-440d-8267-429b519076c5}, !- Building Story Name
  {89e8fa43-c8c2-4751-9dfe-2e9a84c3535c}; !- Thermal Zone Name

OS:Space,
  {2d2ca077-8151-4ab1-b25c-bb65634c91ef}, !- Handle
  "ESE Perim Spc (BB.ESE5)",              !- Name
  ,                                       !- Space Type Name
  ,                                       !- Default Construction Set Name
  ,                                       !- Default Schedule Set Name
  -0,                                     !- Direction of Relative North {deg}
  0,                                      !- X Origin {m}
  0,                                      !- Y Origin {m}
  0,                                      !- Z Origin {m}
  {4f7c3993-ccf2-440d-8267-429b519076c5}, !- Building Story Name
  {f6a2c976-560c-40fb-99fa-1feb9ea277aa}; !- Thermal Zone Name

OS:Space,
  {28df12c7-5d38-4b51-9d43-36387578d823}, !- Handle
  "NNE Perim Spc (BB.NNE6)",              !- Name
  ,                                       !- Space Type Name
  ,                                       !- Default Construction Set Name
  ,                                       !- Default Schedule Set Name
  -0,                                     !- Direction of Relative North {deg}
  0,                                      !- X Origin {m}
  0,                                      !- Y Origin {m}
  0,                                      !- Z Origin {m}
  {4f7c3993-ccf2-440d-8267-429b519076c5}, !- Building Story Name
  {d3dac852-515f-4ae7-b222-a29a81914271}; !- Thermal Zone Name

OS:Space,
  {d29e08ae-dfe3-4c4a-81ae-575d9409c9df}, !- Handle
  "Core Spc (BB.C7)",                     !- Name
  ,                                       !- Space Type Name
  ,                                       !- Default Construction Set Name
  ,                                       !- Default Schedule Set Name
  -0,                                     !- Direction of Relative North {deg}
  0,                                      !- X Origin {m}
  0,                                      !- Y Origin {m}
  0,                                      !- Z Origin {m}
  {4f7c3993-ccf2-440d-8267-429b519076c5}, !- Building Story Name
  {4226b060-5ca9-41f0-a849-510168313798}; !- Thermal Zone Name

OS:Space,
  {1fc22920-6f9f-49c2-8a99-ffcd40085250}, !- Handle
  "NW Perim Plnm (BB.NW8)",               !- Name
  ,                                       !- Space Type Name
  ,                                       !- Default Construction Set Name
  ,                                       !- Default Schedule Set Name
  -0,                                     !- Direction of Relative North {deg}
  0,                                      !- X Origin {m}
  0,                                      !- Y Origin {m}
  0,                                      !- Z Origin {m}
  {4f7c3993-ccf2-440d-8267-429b519076c5}, !- Building Story Name
  {331808b9-9777-4be3-89c8-f75464c2b3a8}; !- Thermal Zone Name

OS:Space,
  {c4a91fc1-15cb-4a11-bdfa-036582f81d6f}, !- Handle
  "SSW Perim Plnm (BB.SSW9)",             !- Name
  ,                                       !- Space Type Name
  ,                                       !- Default Construction Set Name
  ,                                       !- Default Schedule Set Name
  -0,                                     !- Direction of Relative North {deg}
  0,                                      !- X Origin {m}
  0,                                      !- Y Origin {m}
  0,                                      !- Z Origin {m}
  {4f7c3993-ccf2-440d-8267-429b519076c5}, !- Building Story Name
  {0a252109-c251-4246-8c99-101f68659edb}; !- Thermal Zone Name

OS:Space,
  {e57bfa7d-d4e8-424c-be2f-0b7f66906d8f}, !- Handle
  "North Perim Plnm (BB.N10)",            !- Name
  ,                                       !- Space Type Name
  ,                                       !- Default Construction Set Name
  ,                                       !- Default Schedule Set Name
  -0,                                     !- Direction of Relative North {deg}
  0,                                      !- X Origin {m}
  0,                                      !- Y Origin {m}
  0,                                      !- Z Origin {m}
  {4f7c3993-ccf2-440d-8267-429b519076c5}, !- Building Story Name
  {43fe89a5-39cf-4887-9bbb-e1a6249ce64f}; !- Thermal Zone Name

OS:Space,
  {ed8bcdef-d02d-4766-8b47-f7c9622cea65}, !- Handle
  "SSW Perim Plnm (BB.SSW11)",            !- Name
  ,                                       !- Space Type Name
  ,                                       !- Default Construction Set Name
  ,                                       !- Default Schedule Set Name
  -0,                                     !- Direction of Relative North {deg}
  0,                                      !- X Origin {m}
  0,                                      !- Y Origin {m}
  0,                                      !- Z Origin {m}
  {4f7c3993-ccf2-440d-8267-429b519076c5}, !- Building Story Name
  {efa80cee-486b-45cd-bf0c-8384fa391594}; !- Thermal Zone Name

OS:Space,
  {650621ab-84d3-41de-9266-7b1641ff65c4}, !- Handle
  "ESE Perim Plnm (BB.ESE12)",            !- Name
  ,                                       !- Space Type Name
  ,                                       !- Default Construction Set Name
  ,                                       !- Default Schedule Set Name
  -0,                                     !- Direction of Relative North {deg}
  0,                                      !- X Origin {m}
  0,                                      !- Y Origin {m}
  0,                                      !- Z Origin {m}
  {4f7c3993-ccf2-440d-8267-429b519076c5}, !- Building Story Name
  {2125878e-e3ce-4f49-b942-37da107de1e9}; !- Thermal Zone Name

OS:Space,
  {52b7fa60-071a-4e88-8eff-f45755dfccb8}, !- Handle
  "NNE Perim Plnm (BB.NNE13)",            !- Name
  ,                                       !- Space Type Name
  ,                                       !- Default Construction Set Name
  ,                                       !- Default Schedule Set Name
  -0,                                     !- Direction of Relative North {deg}
  0,                                      !- X Origin {m}
  0,                                      !- Y Origin {m}
  0,                                      !- Z Origin {m}
  {4f7c3993-ccf2-440d-8267-429b519076c5}, !- Building Story Name
  {5eaca9cc-2c9a-4f19-8543-65bba56edad1}; !- Thermal Zone Name

OS:Space,
  {399f9963-90be-42a8-8e9d-49515ced431d}, !- Handle
  "Core Plnm (BB.C14)",                   !- Name
  ,                                       !- Space Type Name
  ,                                       !- Default Construction Set Name
  ,                                       !- Default Schedule Set Name
  -0,                                     !- Direction of Relative North {deg}
  0,                                      !- X Origin {m}
  0,                                      !- Y Origin {m}
  0,                                      !- Z Origin {m}
  {4f7c3993-ccf2-440d-8267-429b519076c5}, !- Building Story Name
  {3a050ef4-c1d2-4c5a-a95e-f16372176e71}; !- Thermal Zone Name

OS:Space,
  {47a7c418-b866-448e-9952-f4296f552af4}, !- Handle
  "NW Perim Spc (UB.NW15)",               !- Name
  ,                                       !- Space Type Name
  ,                                       !- Default Construction Set Name
  ,                                       !- Default Schedule Set Name
  -0,                                     !- Direction of Relative North {deg}
  0,                                      !- X Origin {m}
  0,                                      !- Y Origin {m}
  0,                                      !- Z Origin {m}
  {da5683ee-cd54-4a54-b99f-02dc4ecc67e6}, !- Building Story Name
  {57e3b6b9-b6ad-4ebe-9c2c-7d1e46833ee0}; !- Thermal Zone Name

OS:Space,
  {c2970f84-177e-4e74-94b6-d61a5a1ae4f6}, !- Handle
  "SSW Perim Spc (UB.SSW16)",             !- Name
  ,                                       !- Space Type Name
  ,                                       !- Default Construction Set Name
  ,                                       !- Default Schedule Set Name
  -0,                                     !- Direction of Relative North {deg}
  0,                                      !- X Origin {m}
  0,                                      !- Y Origin {m}
  0,                                      !- Z Origin {m}
  {da5683ee-cd54-4a54-b99f-02dc4ecc67e6}, !- Building Story Name
  {0fa6d6e6-0fdb-4766-97f3-371d32ab6673}; !- Thermal Zone Name

OS:Space,
  {8a350703-7f2c-4fbe-9a20-111d6074d352}, !- Handle
  "North Perim Spc (UB.N17)",             !- Name
  ,                                       !- Space Type Name
  ,                                       !- Default Construction Set Name
  ,                                       !- Default Schedule Set Name
  -0,                                     !- Direction of Relative North {deg}
  0,                                      !- X Origin {m}
  0,                                      !- Y Origin {m}
  0,                                      !- Z Origin {m}
  {da5683ee-cd54-4a54-b99f-02dc4ecc67e6}, !- Building Story Name
  {b26f9c21-8b30-4394-b958-223749e9ba9b}; !- Thermal Zone Name

OS:Space,
  {503ab8f6-3251-4178-83e2-e905d7e6ac1b}, !- Handle
  "SSW Perim Spc (UB.SSW18)",             !- Name
  ,                                       !- Space Type Name
  ,                                       !- Default Construction Set Name
  ,                                       !- Default Schedule Set Name
  -0,                                     !- Direction of Relative North {deg}
  0,                                      !- X Origin {m}
  0,                                      !- Y Origin {m}
  0,                                      !- Z Origin {m}
  {da5683ee-cd54-4a54-b99f-02dc4ecc67e6}, !- Building Story Name
  {8366fdba-b1d5-41bd-a1d6-e711bbb57c0a}; !- Thermal Zone Name

OS:Space,
  {c56f9a75-efac-422a-86e2-5b0daed21ab6}, !- Handle
  "ESE Perim Spc (UB.ESE19)",             !- Name
  ,                                       !- Space Type Name
  ,                                       !- Default Construction Set Name
  ,                                       !- Default Schedule Set Name
  -0,                                     !- Direction of Relative North {deg}
  0,                                      !- X Origin {m}
  0,                                      !- Y Origin {m}
  0,                                      !- Z Origin {m}
  {da5683ee-cd54-4a54-b99f-02dc4ecc67e6}, !- Building Story Name
  {42a63c66-7352-4ff4-8305-dad7ffba59e2}; !- Thermal Zone Name

OS:Space,
  {a8436e42-29e6-4071-8aa2-6288c6482fe5}, !- Handle
  "NNE Perim Spc (UB.NNE20)",             !- Name
  ,                                       !- Space Type Name
  ,                                       !- Default Construction Set Name
  ,                                       !- Default Schedule Set Name
  -0,                                     !- Direction of Relative North {deg}
  0,                                      !- X Origin {m}
  0,                                      !- Y Origin {m}
  0,                                      !- Z Origin {m}
  {da5683ee-cd54-4a54-b99f-02dc4ecc67e6}, !- Building Story Name
  {cf31d3ce-32e6-4bec-a1f6-449d430a84f3}; !- Thermal Zone Name

OS:Space,
  {51c9cb36-5e06-4483-85cb-f94f2ffaad56}, !- Handle
  "Core Spc (UB.C21)",                    !- Name
  ,                                       !- Space Type Name
  ,                                       !- Default Construction Set Name
  ,                                       !- Default Schedule Set Name
  -0,                                     !- Direction of Relative North {deg}
  0,                                      !- X Origin {m}
  0,                                      !- Y Origin {m}
  0,                                      !- Z Origin {m}
  {da5683ee-cd54-4a54-b99f-02dc4ecc67e6}, !- Building Story Name
  {5fa90741-b770-4342-b680-6613d602db28}; !- Thermal Zone Name

OS:Space,
  {d461377b-2789-44e0-bd7f-4fb943e28e7f}, !- Handle
  "NW Perim Plnm (UB.NW22)",              !- Name
  ,                                       !- Space Type Name
  ,                                       !- Default Construction Set Name
  ,                                       !- Default Schedule Set Name
  -0,                                     !- Direction of Relative North {deg}
  0,                                      !- X Origin {m}
  0,                                      !- Y Origin {m}
  0,                                      !- Z Origin {m}
  {da5683ee-cd54-4a54-b99f-02dc4ecc67e6}, !- Building Story Name
  {06a570e2-89db-478f-a941-3f0c5ee4c669}; !- Thermal Zone Name

OS:Space,
  {cc13b42f-4647-4756-b0b0-287d57fe42a0}, !- Handle
  "SSW Perim Plnm (UB.SSW23)",            !- Name
  ,                                       !- Space Type Name
  ,                                       !- Default Construction Set Name
  ,                                       !- Default Schedule Set Name
  -0,                                     !- Direction of Relative North {deg}
  0,                                      !- X Origin {m}
  0,                                      !- Y Origin {m}
  0,                                      !- Z Origin {m}
  {da5683ee-cd54-4a54-b99f-02dc4ecc67e6}, !- Building Story Name
  {e60f5ec6-362f-4a7b-b7ca-c8ca73088af5}; !- Thermal Zone Name

OS:Space,
  {c5f87e74-683e-443e-9ff4-7339fc51aa76}, !- Handle
  "North Perim Plnm (UB.N24)",            !- Name
  ,                                       !- Space Type Name
  ,                                       !- Default Construction Set Name
  ,                                       !- Default Schedule Set Name
  -0,                                     !- Direction of Relative North {deg}
  0,                                      !- X Origin {m}
  0,                                      !- Y Origin {m}
  0,                                      !- Z Origin {m}
  {da5683ee-cd54-4a54-b99f-02dc4ecc67e6}, !- Building Story Name
  {2528e942-c6ab-40d7-9683-7c21427b287a}; !- Thermal Zone Name

OS:Space,
  {2518cb5e-55af-4d2a-9e05-4cc558553629}, !- Handle
  "SSW Perim Plnm (UB.SSW25)",            !- Name
  ,                                       !- Space Type Name
  ,                                       !- Default Construction Set Name
  ,                                       !- Default Schedule Set Name
  -0,                                     !- Direction of Relative North {deg}
  0,                                      !- X Origin {m}
  0,                                      !- Y Origin {m}
  0,                                      !- Z Origin {m}
  {da5683ee-cd54-4a54-b99f-02dc4ecc67e6}, !- Building Story Name
  {37ef327e-486d-4553-a1c4-4053db84c6a6}; !- Thermal Zone Name

OS:Space,
  {df5451e2-93c0-45f1-a7d1-35a3fadd0b24}, !- Handle
  "ESE Perim Plnm (UB.ESE26)",            !- Name
  ,                                       !- Space Type Name
  ,                                       !- Default Construction Set Name
  ,                                       !- Default Schedule Set Name
  -0,                                     !- Direction of Relative North {deg}
  0,                                      !- X Origin {m}
  0,                                      !- Y Origin {m}
  0,                                      !- Z Origin {m}
  {da5683ee-cd54-4a54-b99f-02dc4ecc67e6}, !- Building Story Name
  {ee801e6c-7420-4e84-a7ee-569f284ea317}; !- Thermal Zone Name

OS:Space,
  {554bf906-ed2d-4592-abae-dccfb4f9223f}, !- Handle
  "NNE Perim Plnm (UB.NNE27)",            !- Name
  ,                                       !- Space Type Name
  ,                                       !- Default Construction Set Name
  ,                                       !- Default Schedule Set Name
  -0,                                     !- Direction of Relative North {deg}
  0,                                      !- X Origin {m}
  0,                                      !- Y Origin {m}
  0,                                      !- Z Origin {m}
  {da5683ee-cd54-4a54-b99f-02dc4ecc67e6}, !- Building Story Name
  {f1a97b34-d3f2-414c-b380-3937f7d4b7d1}; !- Thermal Zone Name

OS:Space,
  {c2394dcb-f200-4da5-98d2-062f1f3b53b2}, !- Handle
  "Core Plnm (UB.C28)",                   !- Name
  ,                                       !- Space Type Name
  ,                                       !- Default Construction Set Name
  ,                                       !- Default Schedule Set Name
  -0,                                     !- Direction of Relative North {deg}
  0,                                      !- X Origin {m}
  0,                                      !- Y Origin {m}
  0,                                      !- Z Origin {m}
  {da5683ee-cd54-4a54-b99f-02dc4ecc67e6}, !- Building Story Name
  {9ccd0af4-0c03-48cd-85e5-b6014dc382c6}; !- Thermal Zone Name

OS:Space,
  {b8114852-4428-454b-b43f-4281486388e2}, !- Handle
  "NW Perim Spc (G.NW29)",                !- Name
  ,                                       !- Space Type Name
  ,                                       !- Default Construction Set Name
  ,                                       !- Default Schedule Set Name
  -0,                                     !- Direction of Relative North {deg}
  0,                                      !- X Origin {m}
  0,                                      !- Y Origin {m}
  0,                                      !- Z Origin {m}
  {3452e3c6-af79-420d-a3ab-cdabc91ee5ae}, !- Building Story Name
  {7411c0eb-19f8-45ed-9656-d8e96f5db220}; !- Thermal Zone Name

OS:Space,
  {640203b7-2bdf-4516-afba-6ca48e79cf55}, !- Handle
  "SSW Perim Spc (G.SSW30)",              !- Name
  ,                                       !- Space Type Name
  ,                                       !- Default Construction Set Name
  ,                                       !- Default Schedule Set Name
  -0,                                     !- Direction of Relative North {deg}
  0,                                      !- X Origin {m}
  0,                                      !- Y Origin {m}
  0,                                      !- Z Origin {m}
  {3452e3c6-af79-420d-a3ab-cdabc91ee5ae}, !- Building Story Name
  {18574e86-b0fd-40a6-ab17-396577d1749e}; !- Thermal Zone Name

OS:Space,
  {4e080ed9-bce6-4e5a-81d2-6dc2c11ff15d}, !- Handle
  "North Perim Spc (G.N31)",              !- Name
  ,                                       !- Space Type Name
  ,                                       !- Default Construction Set Name
  ,                                       !- Default Schedule Set Name
  -0,                                     !- Direction of Relative North {deg}
  0,                                      !- X Origin {m}
  0,                                      !- Y Origin {m}
  0,                                      !- Z Origin {m}
  {3452e3c6-af79-420d-a3ab-cdabc91ee5ae}, !- Building Story Name
  {faa40939-037c-4c7f-827b-926467476e89}; !- Thermal Zone Name

OS:Space,
  {b48d6987-a89c-45db-9e62-6b7488508d74}, !- Handle
  "SSW Perim Spc (G.SSW32)",              !- Name
  ,                                       !- Space Type Name
  ,                                       !- Default Construction Set Name
  ,                                       !- Default Schedule Set Name
  -0,                                     !- Direction of Relative North {deg}
  0,                                      !- X Origin {m}
  0,                                      !- Y Origin {m}
  0,                                      !- Z Origin {m}
  {3452e3c6-af79-420d-a3ab-cdabc91ee5ae}, !- Building Story Name
  {fb67f923-e4be-447f-93cc-5104be5f19e1}; !- Thermal Zone Name

OS:Space,
  {f6db569b-cbbf-434c-ae1f-4e4c56bb9707}, !- Handle
  "ESE Perim Spc (G.ESE33)",              !- Name
  ,                                       !- Space Type Name
  ,                                       !- Default Construction Set Name
  ,                                       !- Default Schedule Set Name
  -0,                                     !- Direction of Relative North {deg}
  0,                                      !- X Origin {m}
  0,                                      !- Y Origin {m}
  0,                                      !- Z Origin {m}
  {3452e3c6-af79-420d-a3ab-cdabc91ee5ae}, !- Building Story Name
  {46d9c855-a3ab-4544-b802-ec6081a07be9}; !- Thermal Zone Name

OS:Space,
  {6e3b4127-97ff-4900-a581-727b25c15c05}, !- Handle
  "NNE Perim Spc (G.NNE34)",              !- Name
  ,                                       !- Space Type Name
  ,                                       !- Default Construction Set Name
  ,                                       !- Default Schedule Set Name
  -0,                                     !- Direction of Relative North {deg}
  0,                                      !- X Origin {m}
  0,                                      !- Y Origin {m}
  0,                                      !- Z Origin {m}
  {3452e3c6-af79-420d-a3ab-cdabc91ee5ae}, !- Building Story Name
  {3a393064-1e87-4774-b943-4f676603e9a2}; !- Thermal Zone Name

OS:Space,
  {aa5108b8-cbed-4bed-bcc1-70b757177d5c}, !- Handle
  "Core Spc (G.C35)",                     !- Name
  ,                                       !- Space Type Name
  ,                                       !- Default Construction Set Name
  ,                                       !- Default Schedule Set Name
  -0,                                     !- Direction of Relative North {deg}
  0,                                      !- X Origin {m}
  0,                                      !- Y Origin {m}
  0,                                      !- Z Origin {m}
  {3452e3c6-af79-420d-a3ab-cdabc91ee5ae}, !- Building Story Name
  {059e78e4-6d30-46d2-8abf-eb450d89fa0f}; !- Thermal Zone Name

OS:Space,
  {6adf14a1-1280-43e5-906a-033615e46edf}, !- Handle
  "NW Perim Plnm (G.NW36)",               !- Name
  ,                                       !- Space Type Name
  ,                                       !- Default Construction Set Name
  ,                                       !- Default Schedule Set Name
  -0,                                     !- Direction of Relative North {deg}
  0,                                      !- X Origin {m}
  0,                                      !- Y Origin {m}
  0,                                      !- Z Origin {m}
  {3452e3c6-af79-420d-a3ab-cdabc91ee5ae}, !- Building Story Name
  {22d66af2-09fa-47a4-bab1-66c9218e7af8}; !- Thermal Zone Name

OS:Space,
  {066212a3-9c84-4058-adc7-bc5e2fbcc570}, !- Handle
  "SSW Perim Plnm (G.SSW37)",             !- Name
  ,                                       !- Space Type Name
  ,                                       !- Default Construction Set Name
  ,                                       !- Default Schedule Set Name
  -0,                                     !- Direction of Relative North {deg}
  0,                                      !- X Origin {m}
  0,                                      !- Y Origin {m}
  0,                                      !- Z Origin {m}
  {3452e3c6-af79-420d-a3ab-cdabc91ee5ae}, !- Building Story Name
  {5b551a4f-8239-49bc-8206-c16e7ffd27d7}; !- Thermal Zone Name

OS:Space,
  {e16f3aaa-3b2f-4750-933b-444dc182e163}, !- Handle
  "North Perim Plnm (G.N38)",             !- Name
  ,                                       !- Space Type Name
  ,                                       !- Default Construction Set Name
  ,                                       !- Default Schedule Set Name
  -0,                                     !- Direction of Relative North {deg}
  0,                                      !- X Origin {m}
  0,                                      !- Y Origin {m}
  0,                                      !- Z Origin {m}
  {3452e3c6-af79-420d-a3ab-cdabc91ee5ae}, !- Building Story Name
  {3d9d6ece-3fd7-47ce-8002-60ffd75cf4a8}; !- Thermal Zone Name

OS:Space,
  {abaf3b70-2053-47db-a374-bf6dfc230ebb}, !- Handle
  "SSW Perim Plnm (G.SSW39)",             !- Name
  ,                                       !- Space Type Name
  ,                                       !- Default Construction Set Name
  ,                                       !- Default Schedule Set Name
  -0,                                     !- Direction of Relative North {deg}
  0,                                      !- X Origin {m}
  0,                                      !- Y Origin {m}
  0,                                      !- Z Origin {m}
  {3452e3c6-af79-420d-a3ab-cdabc91ee5ae}, !- Building Story Name
  {72e4001f-9f5a-4775-bce9-dd144d3e524c}; !- Thermal Zone Name

OS:Space,
  {82636d32-0e6b-4f79-966c-3fe2233ab5a4}, !- Handle
  "ESE Perim Plnm (G.ESE40)",             !- Name