
OS:Version,
  {96ebc91a-5c06-4b98-aac9-d524d014ae04}, !- Handle
  1.6.0;                                  !- Version Identifier

OS:BuildingStory,
  {2c699bbb-ce1f-4c75-9bf7-ee5fa3911813}, !- Handle
  "Bottom Below-Grade Flr",               !- Name
  ,                                       !- Nominal Z Coordinate {m}
  ,                                       !- Nominal Floor to Floor Height {m}
  ,                                       !- Default Construction Set Name
  ,                                       !- Default Schedule Set Name
  ;                                       !- Group Rendering Name

OS:BuildingStory,
  {9c00ad12-3e64-46ea-b2ac-4a64c693f898}, !- Handle
  "Upper Below-Grade Flr",                !- Name
  ,                                       !- Nominal Z Coordinate {m}
  ,                                       !- Nominal Floor to Floor Height {m}
  ,                                       !- Default Construction Set Name
  ,                                       !- Default Schedule Set Name
  ;                                       !- Group Rendering Name

OS:BuildingStory,
  {957747bc-198d-4976-a33d-3dc509b9568c}, !- Handle
  "Ground Flr",                           !- Name
  ,                                       !- Nominal Z Coordinate {m}
  ,                                       !- Nominal Floor to Floor Height {m}
  ,                                       !- Default Construction Set Name
  ,                                       !- Default Schedule Set Name
  ;                                       !- Group Rendering Name

OS:BuildingStory,
  {22c64718-eae5-4876-bca2-71285034a412}, !- Handle
  "Above-Grade Flr",                      !- Name
  ,                                       !- Nominal Z Coordinate {m}
  ,                                       !- Nominal Floor to Floor Height {m}
  ,                                       !- Default Construction Set Name
  ,                                       !- Default Schedule Set Name
  ;                                       !- Group Rendering Name

OS:BuildingStory,
  {ba9e8b3b-4187-4ba5-883e-dc3e4c149640}, !- Handle
  "Top Abv-Grade Flr",                    !- Name
  ,                                       !- Nominal Z Coordinate {m}
  ,                                       !- Nominal Floor to Floor Height {m}
  ,                                       !- Default Construction Set Name
  ,                                       !- Default Schedule Set Name
  ;                                       !- Group Rendering Name

OS:Space,
  {902b8e9b-bcdc-47f9-aa3f-d754cdfae04d}, !- Handle
  "South Perim Spc (BB.S1)",              !- Name
  ,                                       !- Space Type Name
  ,                                       !- Default Construction Set Name
  ,                                       !- Default Schedule Set Name
  -0,                                     !- Direction of Relative North {deg}
  0,                                      !- X Origin {m}
  0,                                      !- Y Origin {m}
  0,                                      !- Z Origin {m}
  {2c699bbb-ce1f-4c75-9bf7-ee5fa3911813}, !- Building Story Name
  {00dbbf7c-223b-4830-a834-a5a8fa000ff6}; !- Thermal Zone Name

OS:Space,
  {809fa7f0-eb19-43d7-9a8b-8cf92fbb44ba}, !- Handle
  "NE Perim Spc (BB.NE2)",                !- Name
  ,                                       !- Space Type Name
  ,                                       !- Default Construction Set Name
  ,                                       !- Default Schedule Set Name
  -0,                                     !- Direction of Relative North {deg}
  0,                                      !- X Origin {m}
  0,                                      !- Y Origin {m}
  0,                                      !- Z Origin {m}
  {2c699bbb-ce1f-4c75-9bf7-ee5fa3911813}, !- Building Story Name
  {08eba027-b2cf-4252-9b68-f9b2d797c298}; !- Thermal Zone Name

OS:Space,
  {f47155dd-3a7d-476f-bf1a-f5f5085ecbc1}, !- Handle
  "NE Perim Spc (BB.NE3)",                !- Name
  ,                                       !- Space Type Name
  ,                                       !- Default Construction Set Name
  ,                                       !- Default Schedule Set Name
  -0,                                     !- Direction of Relative North {deg}
  0,                                      !- X Origin {m}
  0,                                      !- Y Origin {m}
  0,                                      !- Z Origin {m}
  {2c699bbb-ce1f-4c75-9bf7-ee5fa3911813}, !- Building Story Name
  {903858c0-451d-45d0-a346-1215f2ebd033}; !- Thermal Zone Name

OS:Space,
  {8c66ed9b-03ae-4053-bccf-e49fa75ed7d4}, !- Handle
  "West Perim Spc (BB.W4)",               !- Name
  ,                                       !- Space Type Name
  ,                                       !- Default Construction Set Name
  ,                                       !- Default Schedule Set Name
  -0,                                     !- Direction of Relative North {deg}
  0,                                      !- X Origin {m}
  0,                                      !- Y Origin {m}
  0,                                      !- Z Origin {m}
  {2c699bbb-ce1f-4c75-9bf7-ee5fa3911813}, !- Building Story Name
  {fa9b82ad-089f-4000-9a7b-d4e008136d04}; !- Thermal Zone Name

OS:Space,
  {96c33beb-37b5-4144-a7ea-49a4f51b573b}, !- Handle
  "Core Spc (BB.C5)",                     !- Name
  ,                                       !- Space Type Name
  ,                                       !- Default Construction Set Name
  ,                                       !- Default Schedule Set Name
  -0,                                     !- Direction of Relative North {deg}
  0,                                      !- X Origin {m}
  0,                                      !- Y Origin {m}
  0,                                      !- Z Origin {m}
  {2c699bbb-ce1f-4c75-9bf7-ee5fa3911813}, !- Building Story Name
  {d609b67f-893a-4b32-ae40-8fe12251cf5d}; !- Thermal Zone Name

OS:Space,
  {ff0458e9-7166-40da-91e8-bf65faab9f29}, !- Handle
  "South Perim Plnm (BB.S6)",             !- Name
  ,                                       !- Space Type Name
  ,                                       !- Default Construction Set Name
  ,                                       !- Default Schedule Set Name
  -0,                                     !- Direction of Relative North {deg}
  0,                                      !- X Origin {m}
  0,                                      !- Y Origin {m}
  0,                                      !- Z Origin {m}
  {2c699bbb-ce1f-4c75-9bf7-ee5fa3911813}, !- Building Story Name
  {445537ed-01b5-4f9e-bf6f-ce96ae335d98}; !- Thermal Zone Name

OS:Space,
  {3671f863-01d3-4531-b144-2bea46a1612c}, !- Handle
  "NE Perim Plnm (BB.NE7)",               !- Name
  ,                                       !- Space Type Name
  ,                                       !- Default Construction Set Name
  ,                                       !- Default Schedule Set Name
  -0,                                     !- Direction of Relative North {deg}
  0,                                      !- X Origin {m}
  0,                                      !- Y Origin {m}
  0,                                      !- Z Origin {m}
  {2c699bbb-ce1f-4c75-9bf7-ee5fa3911813}, !- Building Story Name
  {9c6d4f91-6435-4a0d-9350-f5c3a9faabcf}; !- Thermal Zone Name

OS:Space,
  {a9ecf213-e9fb-4121-b9ad-72d3af4aa600}, !- Handle
  "NE Perim Plnm (BB.NE8)",               !- Name
  ,                                       !- Space Type Name
  ,                                       !- Default Construction Set Name
  ,                                       !- Default Schedule Set Name
  -0,                                     !- Direction of Relative North {deg}
  0,                                      !- X Origin {m}
  0,                                      !- Y Origin {m}
  0,                                      !- Z Origin {m}
  {2c699bbb-ce1f-4c75-9bf7-ee5fa3911813}, !- Building Story Name
  {10a116e2-833c-41f7-a413-962c47cc43be}; !- Thermal Zone Name

OS:Space,
  {a9ccfb28-7288-4229-b527-c9ec3e6d692e}, !- Handle
  "West Perim Plnm (BB.W9)",              !- Name
  ,                                       !- Space Type Name
  ,                                       !- Default Construction Set Name
  ,                                       !- Default Schedule Set Name
  -0,                                     !- Direction of Relative North {deg}
  0,                                      !- X Origin {m}
  0,                                      !- Y Origin {m}
  0,                                      !- Z Origin {m}
  {2c699bbb-ce1f-4c75-9bf7-ee5fa3911813}, !- Building Story Name
  {6db7c98e-3a4f-4dd0-9ce2-69f58892cff7}; !- Thermal Zone Name

OS:Space,
  {e17c19df-23f4-4189-8113-369a6fafa072}, !- Handle
  "Core Plnm (BB.C10)",                   !- Name
  ,                                       !- Space Type Name
  ,                                       !- Default Construction Set Name
  ,                                       !- Default Schedule Set Name
  -0,                                     !- Direction of Relative North {deg}
  0,                                      !- X Origin {m}
  0,                                      !- Y Origin {m}
  0,                                      !- Z Origin {m}
  {2c699bbb-ce1f-4c75-9bf7-ee5fa3911813}, !- Building Story Name
  {26177948-2f5e-4721-837c-b2153b6e395c}; !- Thermal Zone Name

OS:Space,
  {65b06165-57b6-4798-bd63-e24ac5b1032d}, !- Handle
  "South Perim Spc (UB.S11)",             !- Name
  ,                                       !- Space Type Name
  ,                                       !- Default Construction Set Name
  ,                                       !- Default Schedule Set Name
  -0,                                     !- Direction of Relative North {deg}
  0,                                      !- X Origin {m}
  0,                                      !- Y Origin {m}
  0,                                      !- Z Origin {m}
  {9c00ad12-3e64-46ea-b2ac-4a64c693f898}, !- Building Story Name
  {20dfe3d9-fd1b-4aeb-9e14-b5e15b848627}; !- Thermal Zone Name

OS:Space,
  {f676be34-c4da-46b2-a02b-99b63d8a5661}, !- Handle
  "NE Perim Spc (UB.NE12)",               !- Name
  ,                                       !- Space Type Name
  ,                                       !- Default Construction Set Name
  ,                                       !- Default Schedule Set Name
  -0,                                     !- Direction of Relative North {deg}
  0,                                      !- X Origin {m}
  0,                                      !- Y Origin {m}
  0,                                      !- Z Origin {m}
  {9c00ad12-3e64-46ea-b2ac-4a64c693f898}, !- Building Story Name
  {25563679-d751-425b-915a-274e3b77da64}; !- Thermal Zone Name

OS:Space,
  {22ca70fc-7b76-449f-95f1-0562e7dc0476}, !- Handle
  "NE Perim Spc (UB.NE13)",               !- Name
  ,                                       !- Space Type Name
  ,                                       !- Default Construction Set Name
  ,                                       !- Default Schedule Set Name
  -0,                                     !- Direction of Relative North {deg}
  0,                                      !- X Origin {m}
  0,                                      !- Y Origin {m}
  0,                                      !- Z Origin {m}
  {9c00ad12-3e64-46ea-b2ac-4a64c693f898}, !- Building Story Name
  {fec5cf51-23d8-4734-a04d-09736f613d00}; !- Thermal Zone Name

OS:Space,
  {357c9326-d479-48d8-8329-7fd681b13b69}, !- Handle
  "West Perim Spc (UB.W14)",              !- Name
  ,                                       !- Space Type Name
  ,                                       !- Default Construction Set Name
  ,                                       !- Default Schedule Set Name
  -0,                                     !- Direction of Relative North {deg}
  0,                                      !- X Origin {m}
  0,                                      !- Y Origin {m}
  0,                                      !- Z Origin {m}
  {9c00ad12-3e64-46ea-b2ac-4a64c693f898}, !- Building Story Name
  {d4d8caac-73ee-4463-9fdf-6078ee3b8ffb}; !- Thermal Zone Name

OS:Space,
  {625c4e37-4cb4-48f6-8721-776d7b8dcfcb}, !- Handle
  "Core Spc (UB.C15)",                    !- Name
  ,                                       !- Space Type Name
  ,                                       !- Default Construction Set Name
  ,                                       !- Default Schedule Set Name
  -0,                                     !- Direction of Relative North {deg}
  0,                                      !- X Origin {m}
  0,                                      !- Y Origin {m}
  0,                                      !- Z Origin {m}
  {9c00ad12-3e64-46ea-b2ac-4a64c693f898}, !- Building Story Name
  {37a73cfa-94ea-4f1a-9c5e-8f539fb21105}; !- Thermal Zone Name

OS:Space,
  {4e08479a-f702-4eea-847c-220a6c756b1b}, !- Handle
  "South Perim Plnm (UB.S16)",            !- Name
  ,                                       !- Space Type Name
  ,                                       !- Default Construction Set Name
  ,                                       !- Default Schedule Set Name
  -0,                                     !- Direction of Relative North {deg}
  0,                                      !- X Origin {m}
  0,                                      !- Y Origin {m}
  0,                                      !- Z Origin {m}
  {9c00ad12-3e64-46ea-b2ac-4a64c693f898}, !- Building Story Name
  {575001c7-2b46-4359-a27e-69dfe2f85052}; !- Thermal Zone Name

OS:Space,
  {bc1c5fee-4c6f-4391-92f5-cd9c5aa8e4db}, !- Handle
  "NE Perim Plnm (UB.NE17)",              !- Name
  ,                                       !- Space Type Name
  ,                                       !- Default Construction Set Name
  ,                                       !- Default Schedule Set Name
  -0,                                     !- Direction of Relative North {deg}
  0,                                      !- X Origin {m}
  0,                                      !- Y Origin {m}
  0,                                      !- Z Origin {m}
  {9c00ad12-3e64-46ea-b2ac-4a64c693f898}, !- Building Story Name
  {4710538d-2e47-44bc-ad47-e5b4a5e591cc}; !- Thermal Zone Name

OS:Space,
  {17c38062-db8c-47c5-a201-88cfe5aa79f8}, !- Handle
  "NE Perim Plnm (UB.NE18)",              !- Name
  ,                                       !- Space Type Name
  ,                                       !- Default Construction Set Name
  ,                                       !- Default Schedule Set Name
  -0,                                     !- Direction of Relative North {deg}
  0,                                      !- X Origin {m}
  0,                                      !- Y Origin {m}
  0,                                      !- Z Origin {m}
  {9c00ad12-3e64-46ea-b2ac-4a64c693f898}, !- Building Story Name
  {a69cf808-3c3e-4efc-9650-ac5525af6b20}; !- Thermal Zone Name

OS:Space,
  {425fda6e-b992-4f09-a619-d51282c45476}, !- Handle
  "West Perim Plnm (UB.W19)",             !- Name
  ,                                       !- Space Type Name
  ,                                       !- Default Construction Set Name
  ,                                       !- Default Schedule Set Name
  -0,                                     !- Direction of Relative North {deg}
  0,                                      !- X Origin {m}
  0,                                      !- Y Origin {m}
  0,                                      !- Z Origin {m}
  {9c00ad12-3e64-46ea-b2ac-4a64c693f898}, !- Building Story Name
  {b51e8431-909d-47f0-b8af-30702bec9aa1}; !- Thermal Zone Name

OS:Space,
  {1d44e8a3-351b-4861-9dac-4b7d247893a5}, !- Handle
  "Core Plnm (UB.C20)",                   !- Name
  ,                                       !- Space Type Name
  ,                                       !- Default Construction Set Name
  ,                                       !- Default Schedule Set Name
  -0,                                     !- Direction of Relative North {deg}
  0,                                      !- X Origin {m}
  0,                                      !- Y Origin {m}
  0,                                      !- Z Origin {m}
  {9c00ad12-3e64-46ea-b2ac-4a64c693f898}, !- Building Story Name
  {fc3c82ba-6b58-4d1c-906c-7aee280d7428}; !- Thermal Zone Name

OS:Space,
  {c9cc77ad-4251-4533-8195-9963b7203842}, !- Handle
  "South Perim Spc (G.S21)",              !- Name
  ,                                       !- Space Type Name
  ,                                       !- Default Construction Set Name
  ,                                       !- Default Schedule Set Name
  -0,                                     !- Direction of Relative North {deg}
  0,                                      !- X Origin {m}
  0,                                      !- Y Origin {m}
  0,                                      !- Z Origin {m}
  {957747bc-198d-4976-a33d-3dc509b9568c}, !- Building Story Name
  {b3617afa-244f-44e6-96a0-d3fdc188a84c}; !- Thermal Zone Name

OS:Space,
  {7a7374e0-3155-4d33-95a7-a86fe49b7023}, !- Handle
  "NE Perim Spc (G.NE22)",                !- Name
  ,                                       !- Space Type Name
  ,                                       !- Default Construction Set Name
  ,                                       !- Default Schedule Set Name
  -0,                                     !- Direction of Relative North {deg}
  0,                                      !- X Origin {m}
  0,                                      !- Y Origin {m}
  0,                                      !- Z Origin {m}
  {957747bc-198d-4976-a33d-3dc509b9568c}, !- Building Story Name
  {d80efe80-406d-48f7-94b4-ae246f344493}; !- Thermal Zone Name

OS:Space,
  {01abf145-19a6-470d-99b0-0542dc17249a}, !- Handle
  "NE Perim Spc (G.NE23)",                !- Name
  ,                                       !- Space Type Name
  ,                                       !- Default Construction Set Name
  ,                                       !- Default Schedule Set Name
  -0,                                     !- Direction of Relative North {deg}
  0,                                      !- X Origin {m}
  0,                                      !- Y Origin {m}
  0,                                      !- Z Origin {m}
  {957747bc-198d-4976-a33d-3dc509b9568c}, !- Building Story Name
  {e39ec416-6660-4ac4-8fff-d0655fbdfd5b}; !- Thermal Zone Name

OS:Space,
  {e45b0674-c5eb-4cd5-9fae-e1d00166dce3}, !- Handle
  "West Perim Spc (G.W24)",               !- Name
  ,                                       !- Space Type Name
  ,                                       !- Default Construction Set Name
  ,                                       !- Default Schedule Set Name
  -0,                                     !- Direction of Relative North {deg}
  0,                                      !- X Origin {m}
  0,                                      !- Y Origin {m}
  0,                                      !- Z Origin {m}
  {957747bc-198d-4976-a33d-3dc509b9568c}, !- Building Story Name
  {5df8a0bd-fde6-45a8-a5e5-0f954ca0a30d}; !- Thermal Zone Name

OS:Space,
  {9896e56b-4222-42f8-9e76-ca4d4a14464d}, !- Handle
  "Core Spc (G.C25)",                     !- Name
  ,                                       !- Space Type Name
  ,                                       !- Default Construction Set Name
  ,                                       !- Default Schedule Set Name
  -0,                                     !- Direction of Relative North {deg}
  0,                                      !- X Origin {m}
  0,                                      !- Y Origin {m}
  0,                                      !- Z Origin {m}
  {957747bc-198d-4976-a33d-3dc509b9568c}, !- Building Story Name
  {dd2c3093-3890-4158-9ff4-25b56f6e358c}; !- Thermal Zone Name

OS:Space,
  {ed642a19-4c39-49f4-9e75-d005261220ea}, !- Handle
  "South Perim Plnm (G.S26)",             !- Name
  ,                                       !- Space Type Name
  ,                                       !- Default Construction Set Name
  ,                                       !- Default Schedule Set Name
  -0,                                     !- Direction of Relative North {deg}
  0,                                      !- X Origin {m}
  0,                                      !- Y Origin {m}
  0,                                      !- Z Origin {m}
  {957747bc-198d-4976-a33d-3dc509b9568c}, !- Building Story Name
  {048b1d3b-99b4-4fba-a7c6-577573ad81f7}; !- Thermal Zone Name

OS:Space,
  {2ff241ce-3c5b-4626-8906-9708e3adb661}, !- Handle
  "NE Perim Plnm (G.NE27)",               !- Name
  ,                                       !- Space Type Name
  ,                                       !- Default Construction Set Name
  ,                                       !- Default Schedule Set Name
  -0,                                     !- Direction of Relative North {deg}
  0,                                      !- X Origin {m}
  0,                                      !- Y Origin {m}
  0,                                      !- Z Origin {m}
  {957747bc-198d-4976-a33d-3dc509b9568c}, !- Building Story Name
  {a4626b68-5db7-43aa-a483-a42f983df054}; !- Thermal Zone Name

OS:Space,
  {59a6756b-f5f0-4e6a-af0f-03058b19f2e3}, !- Handle
  "NE Perim Plnm (G.NE28)",               !- Name
  ,                                       !- Space Type Name
  ,                                       !- Default Construction Set Name
  ,                                       !- Default Schedule Set Name
  -0,                                     !- Direction of Relative North {deg}
  0,                                      !- X Origin {m}
  0,                                      !- Y Origin {m}
  0,                                      !- Z Origin {m}
  {957747bc-198d-4976-a33d-3dc509b9568c}, !- Building Story Name
  {facf2033-49d8-4507-91cd-af368a30843d}; !- Thermal Zone Name

OS:Space,
  {ca22f81a-7e55-47f4-9ec2-16f3d9380e24}, !- Handle
  "West Perim Plnm (G.W29)",              !- Name
  ,                                       !- Space Type Name
  ,                                       !- Default Construction Set Name
  ,                                       !- Default Schedule Set Name
  -0,                                     !- Direction of Relative North {deg}
  0,                                      !- X Origin {m}
  0,                                      !- Y Origin {m}
  0,                                      !- Z Origin {m}
  {957747bc-198d-4976-a33d-3dc509b9568c}, !- Building Story Name
  {69f6566c-839b-42b0-a325-edec1bf33113}; !- Thermal Zone Name

OS:Space,
  {f7a027d8-972e-46d2-885f-3e8f4a18e81e}, !- Handle
  "Core Plnm (G.C30)",                    !- Name
  ,                                       !- Space Type Name
  ,                                       !- Default Construction Set Name
  ,                                       !- Default Schedule Set Name
  -0,                                     !- Direction of Relative North {deg}
  0,                                      !- X Origin {m}
  0,                                      !- Y Origin {m}
  0,                                      !- Z Origin {m}
  {957747bc-198d-4976-a33d-3dc509b9568c}, !- Building Story Name
  {dd64253d-385e-441c-893c-0efd89945931}; !- Thermal Zone Name

OS:Space,
  {5c4e91d2-ecd4-4a51-ada6-c3031ff82686}, !- Handle
  "South Perim Spc (M.S31)",              !- Name
  ,                                       !- Space Type Name
  ,                                       !- Default Construction Set Name
  ,                                       !- Default Schedule Set Name
  -0,                                     !- Direction of Relative North {deg}
  0,                                      !- X Origin {m}
  0,                                      !- Y Origin {m}
  0,                                      !- Z Origin {m}
  {22c64718-eae5-4876-bca2-71285034a412}, !- Building Story Name
  {cdfdf957-cf43-4210-9aa1-b6d8dc8d7bba}; !- Thermal Zone Name

OS:Space,
  {26e81009-604d-4605-81e0-b0acaa31a954}, !- Handle
  "NE Perim Spc (M.NE32)",                !- Name
  ,                                       !- Space Type Name
  ,                                       !- Default Construction Set Name
  ,                                       !- Default Schedule Set Name
  -0,                                     !- Direction of Relative North {deg}
  0,                                      !- X Origin {m}
  0,                                      !- Y Origin {m}
  0,                                      !- Z Origin {m}
  {22c64718-eae5-4876-bca2-71285034a412}, !- Building Story Name
  {5cd3f272-d1e2-45ab-9e41-c6099cbf36d9}; !- Thermal Zone Name

OS:Space,
  {4d686be5-dbfc-432b-bcc0-48446c22371f}, !- Handle
  "NE Perim Spc (M.NE33)",                !- Name
  ,                                       !- Space Type Name
  ,                                       !- Default Construction Set Name
  ,                                       !- Default Schedule Set Name
  -0,                                     !- Direction of Relative North {deg}
  0,                                      !- X Origin {m}
  0,                                      !- Y Origin {m}
  0,                                      !- Z Origin {m}
  {22c64718-eae5-4876-bca2-71285034a412}, !- Building Story Name
  {684e0b90-aac7-4472-9f86-d7f92a5ef770}; !- Thermal Zone Name

OS:Space,
  {f0db93d6-35b7-44b5-9813-ab1aaa2343a8}, !- Handle
  "West Perim Spc (M.W34)",               !- Name
  ,                                       !- Space Type Name
  ,                                       !- Default Construction Set Name
  ,                                       !- Default Schedule Set Name
  -0,                                     !- Direction of Relative North {deg}
  0,                                      !- X Origin {m}
  0,                                      !- Y Origin {m}
  0,                                      !- Z Origin {m}
  {22c64718-eae5-4876-bca2-71285034a412}, !- Building Story Name
  {b3f6c6ce-477b-4f05-ae4d-1c5d79b46a51}; !- Thermal Zone Name

OS:Space,
  {e0c99bfe-b620-4887-b678-72e174235d27}, !- Handle
  "Core Spc (M.C35)",                     !- Name
  ,                                       !- Space Type Name
  ,                                       !- Default Construction Set Name
  ,                                       !- Default Schedule Set Name
  -0,                                     !- Direction of Relative North {deg}
  0,                                      !- X Origin {m}
  0,                                      !- Y Origin {m}
  0,                                      !- Z Origin {m}
  {22c64718-eae5-4876-bca2-71285034a412}, !- Building Story Name
  {9eabff88-5a48-4ea0-888a-20d7d21faf89}; !- Thermal Zone Name

OS:Space,
  {8d2da15d-9510-47a6-9c68-39cd6f59f04d}, !- Handle
  "South Perim Plnm (M.S36)",             !- Name
  ,                                       !- Space Type Name
  ,                                       !- Default Construction Set Name
  ,                                       !- Default Schedule Set Name
  -0,                                     !- Direction of Relative North {deg}
  0,                                      !- X Origin {m}
  0,                                      !- Y Origin {m}
  0,                                      !- Z Origin {m}
  {22c64718-eae5-4876-bca2-71285034a412}, !- Building Story Name
  {3f080e95-0742-477a-bb2c-ef78e833b32d}; !- Thermal Zone Name

OS:Space,
  {7624cde0-f80e-47e8-b996-7b64354f4442}, !- Handle
  "NE Perim Plnm (M.NE37)",               !- Name
  ,                                       !- Space Type Name
  ,                                       !- Default Construction Set Name
  ,                                       !- Default Schedule Set Name
  -0,                                     !- Direction of Relative North {deg}
  0,                                      !- X Origin {m}
  0,                                      !- Y Origin {m}
  0,                                      !- Z Origin {m}
  {22c64718-eae5-4876-bca2-71285034a412}, !- Building Story Name
  {78a7177c-05e8-4ae2-af61-3084d3705094}; !- Thermal Zone Name

OS:Space,
  {b5154516-afc9-4fef-9afd-8acb33be8562}, !- Handle
  "NE Perim Plnm (M.NE38)",               !- Name
  ,                                       !- Space Type Name
  ,                                       !- Default Construction Set Name
  ,                                       !- Default Schedule Set Name
  -0,                                     !- Direction of Relative North {deg}
  0,                                      !- X Origin {m}
  0,                                      !- Y Origin {m}
  0,                                      !- Z Origin {m}
  {22c64718-eae5-4876-bca2-71285034a412}, !- Building Story Name
  {e045573b-dc9b-4853-ad9b-05ef91caa329}; !- Thermal Zone Name

OS:Space,
  {8b4d79e2-aeff-4eab-adee-a7bb2362133c}, !- Handle
  "West Perim Plnm (M.W39)",              !- Name
  ,                                       !- Space Type Name
  ,                                       !- Default Construction Set Name
  ,                                       !- Default Schedule Set Name
  -0,                                     !- Direction of Relative North {deg}
  0,                                      !- X Origin {m}
  0,                                      !- Y Origin {m}
  0,                                      !- Z Origin {m}
  {22c64718-eae5-4876-bca2-71285034a412}, !- Building Story Name
  {edae4d14-3760-4be8-93f9-7c14357ec2fa}; !- Thermal Zone Name

OS:Space,
  {9ba81a9b-aae9-4ca3-a696-e7a4df43d962}, !- Handle
  "Core Plnm (M.C40)",                    !- Name