
OS:Version,
  {80e68eb6-0717-4bc0-8261-df88dc18c545}, !- Handle
  1.7.0;                                  !- Version Identifier

OS:BuildingStory,
  {c98c39fd-e436-4ebc-8e7c-ddfe45d9f6e8}, !- Handle
  "EL1 Below-Grade Flr",                  !- Name
  ,                                       !- Nominal Z Coordinate {m}
  ,                                       !- Nominal Floor to Floor Height {m}
  ,                                       !- Default Construction Set Name
  ,                                       !- Default Schedule Set Name
  ;                                       !- Group Rendering Name

OS:BuildingStory,
  {2bdb49df-69a7-46b6-96e1-3832ea05d5e1}, !- Handle
  "EL1 Ground Flr",                       !- Name
  ,                                       !- Nominal Z Coordinate {m}
  ,                                       !- Nominal Floor to Floor Height {m}
  ,                                       !- Default Construction Set Name
  ,                                       !- Default Schedule Set Name
  ;                                       !- Group Rendering Name

OS:BuildingStory,
  {c4dd2a40-93a6-4e0c-8323-1fc1f75edf2f}, !- Handle
  "EL1 Above-Grade Flr 2",                !- Name
  ,                                       !- Nominal Z Coordinate {m}
  ,                                       !- Nominal Floor to Floor Height {m}
  ,                                       !- Default Construction Set Name
  ,                                       !- Default Schedule Set Name
  ;                                       !- Group Rendering Name

OS:BuildingStory,
  {b4e5a6e7-c86d-45ef-9a1e-e3551bfed423}, !- Handle
  "EL1 Above-Grade Flr 3",                !- Name
  ,                                       !- Nominal Z Coordinate {m}
  ,                                       !- Nominal Floor to Floor Height {m}
  ,                                       !- Default Construction Set Name
  ,                                       !- Default Schedule Set Name
  ;                                       !- Group Rendering Name

OS:BuildingStory,
  {bb006348-cad0-4af5-afd9-a53748ab7b62}, !- Handle
  "EL1 Top Abv-Grade Flr",                !- Name
  ,                                       !- Nominal Z Coordinate {m}
  ,                                       !- Nominal Floor to Floor Height {m}
  ,                                       !- Default Construction Set Name
  ,                                       !- Default Schedule Set Name
  ;                                       !- Group Rendering Name

OS:BuildingStory,
  {fcf8e7ca-8e8c-4131-b464-d96ffcc207f8}, !- Handle
  "EL2 Ground Flr",                       !- Name
  ,                                       !- Nominal Z Coordinate {m}
  ,                                       !- Nominal Floor to Floor Height {m}
  ,                                       !- Default Construction Set Name
  ,                                       !- Default Schedule Set Name
  ;                                       !- Group Rendering Name

OS:BuildingStory,
  {2108fe4e-3674-47ec-97b2-f18711409eb7}, !- Handle
  "EL3 Below-Grade Flr",                  !- Name
  ,                                       !- Nominal Z Coordinate {m}
  ,                                       !- Nominal Floor to Floor Height {m}
  ,                                       !- Default Construction Set Name
  ,                                       !- Default Schedule Set Name
  ;                                       !- Group Rendering Name

OS:BuildingStory,
  {b846a58e-4c23-4917-bd14-9d2c7af3385b}, !- Handle
  "EL3 Ground Flr",                       !- Name
  ,                                       !- Nominal Z Coordinate {m}
  ,                                       !- Nominal Floor to Floor Height {m}
  ,                                       !- Default Construction Set Name
  ,                                       !- Default Schedule Set Name
  ;                                       !- Group Rendering Name

OS:BuildingStory,
  {0b682a9d-768f-45b1-a27f-ea445c3f3e7f}, !- Handle
  "EL4 Below-Grade Flr",                  !- Name
  ,                                       !- Nominal Z Coordinate {m}
  ,                                       !- Nominal Floor to Floor Height {m}
  ,                                       !- Default Construction Set Name
  ,                                       !- Default Schedule Set Name
  ;                                       !- Group Rendering Name

OS:BuildingStory,
  {b427f29a-1227-4dad-8702-3df4a561c330}, !- Handle
  "EL4 Ground Flr",                       !- Name
  ,                                       !- Nominal Z Coordinate {m}
  ,                                       !- Nominal Floor to Floor Height {m}
  ,                                       !- Default Construction Set Name
  ,                                       !- Default Schedule Set Name
  ;                                       !- Group Rendering Name

OS:BuildingStory,
  {1edf1ae2-e4a2-4d77-99fa-0405034d74de}, !- Handle
  "EL4 Above-Grade Flr",                  !- Name
  ,                                       !- Nominal Z Coordinate {m}
  ,                                       !- Nominal Floor to Floor Height {m}
  ,                                       !- Default Construction Set Name
  ,                                       !- Default Schedule Set Name
  ;                                       !- Group Rendering Name

OS:BuildingStory,
  {2ccf756c-52b6-448b-8384-76f0f1d8fdea}, !- Handle
  "EL4 Top Abv-Grade Flr",                !- Name
  ,                                       !- Nominal Z Coordinate {m}
  ,                                       !- Nominal Floor to Floor Height {m}
  ,                                       !- Default Construction Set Name
  ,                                       !- Default Schedule Set Name
  ;                                       !- Group Rendering Name

OS:BuildingStory,
  {1d7ea3ae-ed39-41dd-879c-f92dfa8d0c1e}, !- Handle
  "EL5 Ground Flr",                       !- Name
  ,                                       !- Nominal Z Coordinate {m}
  ,                                       !- Nominal Floor to Floor Height {m}
  ,                                       !- Default Construction Set Name
  ,                                       !- Default Schedule Set Name
  ;                                       !- Group Rendering Name

OS:BuildingStory,
  {75e75321-5b74-48ba-a2b4-db4a2bcef702}, !- Handle
  "EL6 Ground Flr",                       !- Name
  ,                                       !- Nominal Z Coordinate {m}
  ,                                       !- Nominal Floor to Floor Height {m}
  ,                                       !- Default Construction Set Name
  ,                                       !- Default Schedule Set Name
  ;                                       !- Group Rendering Name

OS:Space,
  {0fbfc9d0-e36c-48f1-a78e-895d36d5c30a}, !- Handle
  "EL1 SE Perim Spc (B.SE1)",             !- Name
  ,                                       !- Space Type Name
  ,                                       !- Default Construction Set Name
  ,                                       !- Default Schedule Set Name
  -0,                                     !- Direction of Relative North {deg}
  0,                                      !- X Origin {m}
  0,                                      !- Y Origin {m}
  0,                                      !- Z Origin {m}
  {c98c39fd-e436-4ebc-8e7c-ddfe45d9f6e8}, !- Building Story Name
  {46992839-2634-429c-bb64-4dccb3467fcc}; !- Thermal Zone Name

OS:Space,
  {e10d3688-823e-475d-ac58-fe540babc550}, !- Handle
  "EL1 NE Perim Spc (B.NE2)",             !- Name
  ,                                       !- Space Type Name
  ,                                       !- Default Construction Set Name
  ,                                       !- Default Schedule Set Name
  -0,                                     !- Direction of Relative North {deg}
  0,                                      !- X Origin {m}
  0,                                      !- Y Origin {m}
  0,                                      !- Z Origin {m}
  {c98c39fd-e436-4ebc-8e7c-ddfe45d9f6e8}, !- Building Story Name
  {0af04196-d3ee-4117-8555-b6992c852768}; !- Thermal Zone Name

OS:Space,
  {633412d4-466e-4143-a25e-8a7064de1c0e}, !- Handle
  "EL1 NW Perim Spc (B.NW3)",             !- Name
  ,                                       !- Space Type Name
  ,                                       !- Default Construction Set Name
  ,                                       !- Default Schedule Set Name
  -0,                                     !- Direction of Relative North {deg}
  0,                                      !- X Origin {m}
  0,                                      !- Y Origin {m}
  0,                                      !- Z Origin {m}
  {c98c39fd-e436-4ebc-8e7c-ddfe45d9f6e8}, !- Building Story Name
  {4e2bbd3c-57e8-44b4-9d72-a7d8581744e8}; !- Thermal Zone Name

OS:Space,
  {016c774d-3289-445d-8940-aa1339e6e6fa}, !- Handle
  "EL1 SW Perim Spc (B.SW4)",             !- Name
  ,                                       !- Space Type Name
  ,                                       !- Default Construction Set Name
  ,                                       !- Default Schedule Set Name
  -0,                                     !- Direction of Relative North {deg}
  0,                                      !- X Origin {m}
  0,                                      !- Y Origin {m}
  0,                                      !- Z Origin {m}
  {c98c39fd-e436-4ebc-8e7c-ddfe45d9f6e8}, !- Building Story Name
  {f8819c87-8098-46a8-b5f6-b709179eb8c5}; !- Thermal Zone Name

OS:Space,
  {b8448f8d-2735-4a3a-b0cb-a45e32006a6a}, !- Handle
  "EL1 Core Spc (B.C5)",                  !- Name
  ,                                       !- Space Type Name
  ,                                       !- Default Construction Set Name
  ,                                       !- Default Schedule Set Name
  -0,                                     !- Direction of Relative North {deg}
  0,                                      !- X Origin {m}
  0,                                      !- Y Origin {m}
  0,                                      !- Z Origin {m}
  {c98c39fd-e436-4ebc-8e7c-ddfe45d9f6e8}, !- Building Story Name
  {af10f982-16f5-4d9b-a652-7d6358ecef24}; !- Thermal Zone Name

OS:Space,
  {08004084-03b1-412c-b7f0-69f0c3c66efe}, !- Handle
  "EL1 Plnm (B.6)",                       !- Name
  ,                                       !- Space Type Name
  ,                                       !- Default Construction Set Name
  ,                                       !- Default Schedule Set Name
  -0,                                     !- Direction of Relative North {deg}
  0,                                      !- X Origin {m}
  0,                                      !- Y Origin {m}
  0,                                      !- Z Origin {m}
  {c98c39fd-e436-4ebc-8e7c-ddfe45d9f6e8}, !- Building Story Name
  {919fda91-d49f-4806-ad0e-fa222a3211e2}; !- Thermal Zone Name

OS:Space,
  {220bd003-9299-4a6c-bfc0-6bb6e4bcf2fe}, !- Handle
  "EL1 SE Perim Spc (G.SE7)",             !- Name
  ,                                       !- Space Type Name
  ,                                       !- Default Construction Set Name
  ,                                       !- Default Schedule Set Name
  -0,                                     !- Direction of Relative North {deg}
  0,                                      !- X Origin {m}
  0,                                      !- Y Origin {m}
  0,                                      !- Z Origin {m}
  {2bdb49df-69a7-46b6-96e1-3832ea05d5e1}, !- Building Story Name
  {19fecaad-992a-418b-8ff7-63d8fd6a1db6}; !- Thermal Zone Name

OS:Space,
  {691f2bca-0578-44d9-8d8d-b53a6fe939d5}, !- Handle
  "EL1 NE Perim Spc (G.NE8)",             !- Name
  ,                                       !- Space Type Name
  ,                                       !- Default Construction Set Name
  ,                                       !- Default Schedule Set Name
  -0,                                     !- Direction of Relative North {deg}
  0,                                      !- X Origin {m}
  0,                                      !- Y Origin {m}
  0,                                      !- Z Origin {m}
  {2bdb49df-69a7-46b6-96e1-3832ea05d5e1}, !- Building Story Name
  {c8048995-3dad-41f9-a6c9-87021a734208}; !- Thermal Zone Name

OS:Space,
  {f65a9b80-5fa0-4622-a869-59f35cd2fa6f}, !- Handle
  "EL1 NW Perim Spc (G.NW9)",             !- Name
  ,                                       !- Space Type Name
  ,                                       !- Default Construction Set Name
  ,                                       !- Default Schedule Set Name
  -0,                                     !- Direction of Relative North {deg}
  0,                                      !- X Origin {m}
  0,                                      !- Y Origin {m}
  0,                                      !- Z Origin {m}
  {2bdb49df-69a7-46b6-96e1-3832ea05d5e1}, !- Building Story Name
  {54dcace7-442c-4605-9bd5-c2080dfcf081}; !- Thermal Zone Name

OS:Space,
  {777fc5fd-9d85-477d-9cb3-9c19102eff01}, !- Handle
  "EL1 SW Perim Spc (G.SW10)",            !- Name
  ,                                       !- Space Type Name
  ,                                       !- Default Construction Set Name
  ,                                       !- Default Schedule Set Name
  -0,                                     !- Direction of Relative North {deg}
  0,                                      !- X Origin {m}
  0,                                      !- Y Origin {m}
  0,                                      !- Z Origin {m}
  {2bdb49df-69a7-46b6-96e1-3832ea05d5e1}, !- Building Story Name
  {68e2c47b-d412-476a-ae51-2b2b4903b34d}; !- Thermal Zone Name

OS:Space,
  {7fca0d5a-2d64-4ce3-83c6-d08ca52fa1a0}, !- Handle
  "EL1 Core Spc (G.C11)",                 !- Name
  ,                                       !- Space Type Name
  ,                                       !- Default Construction Set Name
  ,                                       !- Default Schedule Set Name
  -0,                                     !- Direction of Relative North {deg}
  0,                                      !- X Origin {m}
  0,                                      !- Y Origin {m}
  0,                                      !- Z Origin {m}
  {2bdb49df-69a7-46b6-96e1-3832ea05d5e1}, !- Building Story Name
  {3cf90945-2236-4b41-a409-54a074ee16b1}; !- Thermal Zone Name

OS:Space,
  {ea82aa70-81c7-428a-9c64-5a59e55f5ee1}, !- Handle
  "EL1 Plnm (G.12)",                      !- Name
  ,                                       !- Space Type Name
  ,                                       !- Default Construction Set Name
  ,                                       !- Default Schedule Set Name
  -0,                                     !- Direction of Relative North {deg}
  0,                                      !- X Origin {m}
  0,                                      !- Y Origin {m}
  0,                                      !- Z Origin {m}
  {2bdb49df-69a7-46b6-96e1-3832ea05d5e1}, !- Building Story Name
  {4eba87e2-c4ad-4a73-882c-84cb147267be}; !- Thermal Zone Name

OS:Space,
  {75ab7d58-a9c6-4546-bd37-c1b9f4b149ac}, !- Handle
  "EL1 SE Perim Spc (M.SE13)",            !- Name
  ,                                       !- Space Type Name
  ,                                       !- Default Construction Set Name
  ,                                       !- Default Schedule Set Name
  -0,                                     !- Direction of Relative North {deg}
  0,                                      !- X Origin {m}
  0,                                      !- Y Origin {m}
  0,                                      !- Z Origin {m}
  {c4dd2a40-93a6-4e0c-8323-1fc1f75edf2f}, !- Building Story Name
  {f16cfcad-dee1-4a23-a4b5-6e21ef7d4c52}; !- Thermal Zone Name

OS:Space,
  {e0048ffc-7829-4f9e-9542-743a181e5c62}, !- Handle
  "EL1 NE Perim Spc (M.NE14)",            !- Name
  ,                                       !- Space Type Name
  ,                                       !- Default Construction Set Name
  ,                                       !- Default Schedule Set Name
  -0,                                     !- Direction of Relative North {deg}
  0,                                      !- X Origin {m}
  0,                                      !- Y Origin {m}
  0,                                      !- Z Origin {m}
  {c4dd2a40-93a6-4e0c-8323-1fc1f75edf2f}, !- Building Story Name
  {932eddd8-0470-4817-b8dc-00dc8977681e}; !- Thermal Zone Name

OS:Space,
  {70adfd1c-cfdd-4389-a405-b615702e5c8c}, !- Handle
  "EL1 NW Perim Spc (M.NW15)",            !- Name
  ,                                       !- Space Type Name
  ,                                       !- Default Construction Set Name
  ,                                       !- Default Schedule Set Name
  -0,                                     !- Direction of Relative North {deg}
  0,                                      !- X Origin {m}
  0,                                      !- Y Origin {m}
  0,                                      !- Z Origin {m}
  {c4dd2a40-93a6-4e0c-8323-1fc1f75edf2f}, !- Building Story Name
  {dfcddf3b-3cc1-4fac-ac9b-d25dc6224330}; !- Thermal Zone Name

OS:Space,
  {5ed32944-6370-46a2-9c69-358d89aa62dd}, !- Handle
  "EL1 SW Perim Spc (M.SW16)",            !- Name
  ,                                       !- Space Type Name
  ,                                       !- Default Construction Set Name
  ,                                       !- Default Schedule Set Name
  -0,                                     !- Direction of Relative North {deg}
  0,                                      !- X Origin {m}
  0,                                      !- Y Origin {m}
  0,                                      !- Z Origin {m}
  {c4dd2a40-93a6-4e0c-8323-1fc1f75edf2f}, !- Building Story Name
  {09043369-5213-46d9-9249-5aaff5f05f30}; !- Thermal Zone Name

OS:Space,
  {77f3e315-b57e-499d-8ac1-03fc38afe983}, !- Handle
  "EL1 Core Spc (M.C17)",                 !- Name
  ,                                       !- Space Type Name
  ,                                       !- Default Construction Set Name
  ,                                       !- Default Schedule Set Name
  -0,                                     !- Direction of Relative North {deg}
  0,                                      !- X Origin {m}
  0,                                      !- Y Origin {m}
  0,                                      !- Z Origin {m}
  {c4dd2a40-93a6-4e0c-8323-1fc1f75edf2f}, !- Building Story Name
  {77cd5b4a-7383-4ccb-b3a1-7bc6fcfc4c42}; !- Thermal Zone Name

OS:Space,
  {6a9f5636-c993-4fad-99a4-70545ac04d4d}, !- Handle
  "EL1 Plnm (M.18)",                      !- Name
  ,                                       !- Space Type Name
  ,                                       !- Default Construction Set Name
  ,                                       !- Default Schedule Set Name
  -0,                                     !- Direction of Relative North {deg}
  0,                                      !- X Origin {m}
  0,                                      !- Y Origin {m}
  0,                                      !- Z Origin {m}
  {c4dd2a40-93a6-4e0c-8323-1fc1f75edf2f}, !- Building Story Name
  {66e066b1-8684-4ff5-aa80-54d2099c07ed}; !- Thermal Zone Name

OS:Space,
  {1cbab3b8-e3cc-4875-831f-33cce5879ece}, !- Handle
  "EL1 SE Perim Spc (Mb.SE19)",           !- Name
  ,                                       !- Space Type Name
  ,                                       !- Default Construction Set Name
  ,                                       !- Default Schedule Set Name
  -0,                                     !- Direction of Relative North {deg}
  0,                                      !- X Origin {m}
  0,                                      !- Y Origin {m}
  0,                                      !- Z Origin {m}
  {b4e5a6e7-c86d-45ef-9a1e-e3551bfed423}, !- Building Story Name
  {e6074058-9fce-48ff-8bbd-08f558c1d49a}; !- Thermal Zone Name

OS:Space,
  {49b136bd-405a-403a-b765-ba5315f8f43d}, !- Handle
  "EL1 NE Perim Spc (Mb.NE20)",           !- Name
  ,                                       !- Space Type Name
  ,                                       !- Default Construction Set Name
  ,                                       !- Default Schedule Set Name
  -0,                                     !- Direction of Relative North {deg}
  0,                                      !- X Origin {m}
  0,                                      !- Y Origin {m}
  0,                                      !- Z Origin {m}
  {b4e5a6e7-c86d-45ef-9a1e-e3551bfed423}, !- Building Story Name
  {981c1ea2-4191-49a6-b4a7-51c488c4d7de}; !- Thermal Zone Name

OS:Space,
  {4cc198c5-cb87-486b-b1be-3042645d27de}, !- Handle
  "EL1 NW Perim Spc (Mb.NW21)",           !- Name
  ,                                       !- Space Type Name
  ,                                       !- Default Construction Set Name
  ,                                       !- Default Schedule Set Name
  -0,                                     !- Direction of Relative North {deg}
  0,                                      !- X Origin {m}
  0,                                      !- Y Origin {m}
  0,                                      !- Z Origin {m}
  {b4e5a6e7-c86d-45ef-9a1e-e3551bfed423}, !- Building Story Name
  {9749020a-e0c2-41e7-8277-3c4d79044a1d}; !- Thermal Zone Name

OS:Space,
  {571db9b7-e55f-4cd1-937c-0add9e0e3ec1}, !- Handle
  "EL1 SW Perim Spc (Mb.SW22)",           !- Name
  ,                                       !- Space Type Name
  ,                                       !- Default Construction Set Name
  ,                                       !- Default Schedule Set Name
  -0,                                     !- Direction of Relative North {deg}
  0,                                      !- X Origin {m}
  0,                                      !- Y Origin {m}
  0,                                      !- Z Origin {m}
  {b4e5a6e7-c86d-45ef-9a1e-e3551bfed423}, !- Building Story Name
  {bc7c4ef0-ef03-4b28-9f21-d550c344c44a}; !- Thermal Zone Name

OS:Space,
  {74cc89cd-557b-443e-a828-b1f4f7a11c5c}, !- Handle
  "EL1 Core Spc (Mb.C23)",                !- Name
  ,                                       !- Space Type Name
  ,                                       !- Default Construction Set Name
  ,                                       !- Default Schedule Set Name
  -0,                                     !- Direction of Relative North {deg}
  0,                                      !- X Origin {m}
  0,                                      !- Y Origin {m}
  0,                                      !- Z Origin {m}
  {b4e5a6e7-c86d-45ef-9a1e-e3551bfed423}, !- Building Story Name
  {198fe4bf-8cc7-48ec-bbb4-def28fb50e9f}; !- Thermal Zone Name

OS:Space,
  {2193795b-1023-40dd-a804-ba894d185d9e}, !- Handle
  "EL1 Plnm (Mb.24)",                     !- Name
  ,                                       !- Space Type Name
  ,                                       !- Default Construction Set Name
  ,                                       !- Default Schedule Set Name
  -0,                                     !- Direction of Relative North {deg}
  0,                                      !- X Origin {m}
  0,                                      !- Y Origin {m}
  0,                                      !- Z Origin {m}
  {b4e5a6e7-c86d-45ef-9a1e-e3551bfed423}, !- Building Story Name
  {7ab9ce85-5ebb-4373-9187-6c6eac6b3ff1}; !- Thermal Zone Name

OS:Space,
  {f5c30d17-a02e-459e-ba7d-2944efad3025}, !- Handle
  "EL1 SE Perim Spc (T.SE25)",            !- Name
  ,                                       !- Space Type Name
  ,                                       !- Default Construction Set Name
  ,                                       !- Default Schedule Set Name
  -0,                                     !- Direction of Relative North {deg}
  0,                                      !- X Origin {m}
  0,                                      !- Y Origin {m}
  0,                                      !- Z Origin {m}
  {bb006348-cad0-4af5-afd9-a53748ab7b62}, !- Building Story Name
  {0dbedfa6-65fe-4601-b21d-fd92a3a957ba}; !- Thermal Zone Name

OS:Space,
  {5dd3ed54-96aa-4aef-9870-890c9973acc6}, !- Handle
  "EL1 NE Perim Spc (T.NE26)",            !- Name
  ,                                       !- Space Type Name
  ,                                       !- Default Construction Set Name
  ,                                       !- Default Schedule Set Name
  -0,                                     !- Direction of Relative North {deg}
  0,                                      !- X Origin {m}
  0,                                      !- Y Origin {m}
  0,                                      !- Z Origin {m}
  {bb006348-cad0-4af5-afd9-a53748ab7b62}, !- Building Story Name
  {48e50641-0151-46e8-bd16-2ce34be718d5}; !- Thermal Zone Name

OS:Space,
  {269f5602-6908-4164-9205-70964037f379}, !- Handle
  "EL1 NW Perim Spc (T.NW27)",            !- Name
  ,                                       !- Space Type Name
  ,                                       !- Default Construction Set Name
  ,                                       !- Default Schedule Set Name
  -0,                                     !- Direction of Relative North {deg}
  0,                                      !- X Origin {m}
  0,                                      !- Y Origin {m}
  0,                                      !- Z Origin {m}
  {bb006348-cad0-4af5-afd9-a53748ab7b62}, !- Building Story Name
  {e2570a3b-823f-4826-9364-ca0ccd7d7eff}; !- Thermal Zone Name

OS:Space,
  {41069798-a055-4f0a-b4ae-2345e204436f}, !- Handle
  "EL1 SW Perim Spc (T.SW28)",            !- Name
  ,                                       !- Space Type Name
  ,                                       !- Default Construction Set Name
  ,                                       !- Default Schedule Set Name
  -0,                                     !- Direction of Relative North {deg}
  0,                                      !- X Origin {m}
  0,                                      !- Y Origin {m}
  0,                                      !- Z Origin {m}
  {bb006348-cad0-4af5-afd9-a53748ab7b62}, !- Building Story Name
  {8ded296d-9df9-4466-be7a-0a966c64fb67}; !- Thermal Zone Name

OS:Space,
  {9de1c376-8b1e-4a71-bda1-864ea8b2f9a4}, !- Handle
  "EL1 Core Spc (T.C29)",                 !- Name
  ,                                       !- Space Type Name
  ,                                       !- Default Construction Set Name
  ,                                       !- Default Schedule Set Name
  -0,                                     !- Direction of Relative North {deg}
  0,                                      !- X Origin {m}
  0,                                      !- Y Origin {m}
  0,                                      !- Z Origin {m}
  {bb006348-cad0-4af5-afd9-a53748ab7b62}, !- Building Story Name
  {d682d0fb-f56e-4770-b0cf-e025f9dab4c6}; !- Thermal Zone Name

OS:Space,
  {d3900d67-a5b6-4e1f-b964-c6992881e768}, !- Handle
  "EL1 Plnm (T.30)",                      !- Name
  ,                                       !- Space Type Name
  ,                                       !- Default Construction Set Name
  ,                                       !- Default Schedule Set Name
  -0,                                     !- Direction of Relative North {deg}
  0,                                      !- X Origin {m}
  0,                                      !- Y Origin {m}
  0,                                      !- Z Origin {m}
  {bb006348-cad0-4af5-afd9-a53748ab7b62}, !- Building Story Name
  {6df43d93-0b34-4dbe-93c5-6959c9094c54}; !- Thermal Zone Name

OS:Space,
  {2fa8c182-e710-4a54-9e14-6814bd7c7ae2}, !- Handle
  "EL2 Spc (G.1)",                        !- Name
  ,                                       !- Space Type Name
  ,                                       !- Default Construction Set Name
  ,                                       !- Default Schedule Set Name
  -0,                                     !- Direction of Relative North {deg}
  0,                                      !- X Origin {m}
  0,                                      !- Y Origin {m}
  0,                                      !- Z Origin {m}
  {fcf8e7ca-8e8c-4131-b464-d96ffcc207f8}, !- Building Story Name
  {e954e114-8f22-4a6c-83c4-b43a3da94efb}; !- Thermal Zone Name

OS:Space,
  {e7e8b480-7897-4869-9d85-66d62269a8a0}, !- Handle
  "EL3 Spc (B.1)",                        !- Name
  ,                                       !- Space Type Name
  ,                                       !- Default Construction Set Name
  ,                                       !- Default Schedule Set Name
  -0,                                     !- Direction of Relative North {deg}
  0,                                      !- X Origin {m}
  0,                                      !- Y Origin {m}
  0,                                      !- Z Origin {m}
  {2108fe4e-3674-47ec-97b2-f18711409eb7}, !- Building Story Name
  {b393616d-1ab6-4c0d-9a72-cc9e8931e6e5}; !- Thermal Zone Name

OS:Space,
  {da606f8c-44bf-411e-9b2d-845ea159c270}, !- Handle
  "EL3 Spc (G.2)",                        !- Name
  ,                                       !- Space Type Name
  ,                                       !- Default Construction Set Name
  ,                                       !- Default Schedule Set Name
  -0,                                     !- Direction of Relative North {deg}
  0,                                      !- X Origin {m}
  0,                                      !- Y Origin {m}
  0,                                      !- Z Origin {m}
  {b846a58e-4c23-4917-bd14-9d2c7af3385b}, !- Building Story Name