
OS:Version,
  {e8962ac0-50db-4dc6-837e-7b6edeac9ad4}, !- Handle
  1.7.0;                                  !- Version Identifier

OS:BuildingStory,
  {e4eff68b-9c47-4aef-adbf-c332e0ac2907}, !- Handle
  "Bottom Below-Grade Flr",               !- Name
  ,                                       !- Nominal Z Coordinate {m}
  ,                                       !- Nominal Floor to Floor Height {m}
  ,                                       !- Default Construction Set Name
  ,                                       !- Default Schedule Set Name
  ;                                       !- Group Rendering Name

OS:BuildingStory,
  {23b24f38-de9c-4ae5-a12a-430e8e2d6275}, !- Handle
  "Upper Below-Grade Flr",                !- Name
  ,                                       !- Nominal Z Coordinate {m}
  ,                                       !- Nominal Floor to Floor Height {m}
  ,                                       !- Default Construction Set Name
  ,                                       !- Default Schedule Set Name
  ;                                       !- Group Rendering Name

OS:BuildingStory,
  {7f43ac22-099c-4e0c-8f60-7fcdc734d361}, !- Handle
  "Ground Flr",                           !- Name
  ,                                       !- Nominal Z Coordinate {m}
  ,                                       !- Nominal Floor to Floor Height {m}
  ,                                       !- Default Construction Set Name
  ,                                       !- Default Schedule Set Name
  ;                                       !- Group Rendering Name

OS:BuildingStory,
  {4cae8660-6774-4427-9c84-0502619f92d1}, !- Handle
  "Above-Grade Flr",                      !- Name
  ,                                       !- Nominal Z Coordinate {m}
  ,                                       !- Nominal Floor to Floor Height {m}
  ,                                       !- Default Construction Set Name
  ,                                       !- Default Schedule Set Name
  ;                                       !- Group Rendering Name

OS:BuildingStory,
  {f4d17848-51a1-44ea-8939-34d52b347544}, !- Handle
  "Top Abv-Grade Flr",                    !- Name
  ,                                       !- Nominal Z Coordinate {m}
  ,                                       !- Nominal Floor to Floor Height {m}
  ,                                       !- Default Construction Set Name
  ,                                       !- Default Schedule Set Name
  ;                                       !- Group Rendering Name

OS:Space,
  {cd579132-4ea3-4aa1-9e7b-35d6a189d15c}, !- Handle
  "SE Perim Spc (BB.SE1)",                !- Name
  ,                                       !- Space Type Name
  ,                                       !- Default Construction Set Name
  ,                                       !- Default Schedule Set Name
  -0,                                     !- Direction of Relative North {deg}
  0,                                      !- X Origin {m}
  0,                                      !- Y Origin {m}
  0,                                      !- Z Origin {m}
  {e4eff68b-9c47-4aef-adbf-c332e0ac2907}, !- Building Story Name
  {ea4cedb6-36a3-4d21-9f6c-07e0eb38cfa9}; !- Thermal Zone Name

OS:Space,
  {889e03c1-b0f1-489c-87ba-fa0934b8654f}, !- Handle
  "SE Perim Spc (BB.SE2)",                !- Name
  ,                                       !- Space Type Name
  ,                                       !- Default Construction Set Name
  ,                                       !- Default Schedule Set Name
  -0,                                     !- Direction of Relative North {deg}
  0,                                      !- X Origin {m}
  0,                                      !- Y Origin {m}
  0,                                      !- Z Origin {m}
  {e4eff68b-9c47-4aef-adbf-c332e0ac2907}, !- Building Story Name
  {9770b618-16e6-42aa-ad17-a1aebdf57b84}; !- Thermal Zone Name

OS:Space,
  {1ba628a9-8fdb-4a34-bef5-aeb00952e1e2}, !- Handle
  "North Perim Spc (BB.N3)",              !- Name
  ,                                       !- Space Type Name
  ,                                       !- Default Construction Set Name
  ,                                       !- Default Schedule Set Name
  -0,                                     !- Direction of Relative North {deg}
  0,                                      !- X Origin {m}
  0,                                      !- Y Origin {m}
  0,                                      !- Z Origin {m}
  {e4eff68b-9c47-4aef-adbf-c332e0ac2907}, !- Building Story Name
  {3fd41fb9-660d-4e64-9523-ac8633eb3cf5}; !- Thermal Zone Name

OS:Space,
  {6f5d8df2-b17c-4ccd-8046-8d54186dbd02}, !- Handle
  "NE Perim Spc (BB.NE4)",                !- Name
  ,                                       !- Space Type Name
  ,                                       !- Default Construction Set Name
  ,                                       !- Default Schedule Set Name
  -0,                                     !- Direction of Relative North {deg}
  0,                                      !- X Origin {m}
  0,                                      !- Y Origin {m}
  0,                                      !- Z Origin {m}
  {e4eff68b-9c47-4aef-adbf-c332e0ac2907}, !- Building Story Name
  {53aed755-4594-42e2-9fae-e073d43288ed}; !- Thermal Zone Name

OS:Space,
  {80db24a3-0e3e-4677-8955-6414817dfbac}, !- Handle
  "West Perim Spc (BB.W5)",               !- Name
  ,                                       !- Space Type Name
  ,                                       !- Default Construction Set Name
  ,                                       !- Default Schedule Set Name
  -0,                                     !- Direction of Relative North {deg}
  0,                                      !- X Origin {m}
  0,                                      !- Y Origin {m}
  0,                                      !- Z Origin {m}
  {e4eff68b-9c47-4aef-adbf-c332e0ac2907}, !- Building Story Name
  {6ec29447-4367-49c0-89ff-310d11a6e154}; !- Thermal Zone Name

OS:Space,
  {a5ca8bb0-a1ae-40b7-8df7-9d7e2860f5bb}, !- Handle
  "NW Perim Spc (BB.NW6)",                !- Name
  ,                                       !- Space Type Name
  ,                                       !- Default Construction Set Name
  ,                                       !- Default Schedule Set Name
  -0,                                     !- Direction of Relative North {deg}
  0,                                      !- X Origin {m}
  0,                                      !- Y Origin {m}
  0,                                      !- Z Origin {m}
  {e4eff68b-9c47-4aef-adbf-c332e0ac2907}, !- Building Story Name
  {fb13b6d6-b59d-48b7-b944-d66cca79e4c1}; !- Thermal Zone Name

OS:Space,
  {eee0fc0a-d37a-4423-96c9-c8d5b21a934d}, !- Handle
  "South Perim Spc (BB.S7)",              !- Name
  ,                                       !- Space Type Name
  ,                                       !- Default Construction Set Name
  ,                                       !- Default Schedule Set Name
  -0,                                     !- Direction of Relative North {deg}
  0,                                      !- X Origin {m}
  0,                                      !- Y Origin {m}
  0,                                      !- Z Origin {m}
  {e4eff68b-9c47-4aef-adbf-c332e0ac2907}, !- Building Story Name
  {50ecfd90-e6c3-4fef-84b1-116835285575}; !- Thermal Zone Name

OS:Space,
  {31f70cbe-f4fe-455b-9e77-98f8c3f7c81f}, !- Handle
  "West Perim Spc (BB.W8)",               !- Name
  ,                                       !- Space Type Name
  ,                                       !- Default Construction Set Name
  ,                                       !- Default Schedule Set Name
  -0,                                     !- Direction of Relative North {deg}
  0,                                      !- X Origin {m}
  0,                                      !- Y Origin {m}
  0,                                      !- Z Origin {m}
  {e4eff68b-9c47-4aef-adbf-c332e0ac2907}, !- Building Story Name
  {21951a1d-833a-496f-beda-94d4751ad6d2}; !- Thermal Zone Name

OS:Space,
  {b01dbdd8-8838-49bc-8629-0b10dc114487}, !- Handle
  "SE Perim Plnm (BB.SE9)",               !- Name
  ,                                       !- Space Type Name
  ,                                       !- Default Construction Set Name
  ,                                       !- Default Schedule Set Name
  -0,                                     !- Direction of Relative North {deg}
  0,                                      !- X Origin {m}
  0,                                      !- Y Origin {m}
  0,                                      !- Z Origin {m}
  {e4eff68b-9c47-4aef-adbf-c332e0ac2907}, !- Building Story Name
  {a336d144-a116-43c5-851b-a225abc67a03}; !- Thermal Zone Name

OS:Space,
  {96e6f95f-fdcb-4b32-b38d-bbe0610696b5}, !- Handle
  "SE Perim Plnm (BB.SE10)",              !- Name
  ,                                       !- Space Type Name
  ,                                       !- Default Construction Set Name
  ,                                       !- Default Schedule Set Name
  -0,                                     !- Direction of Relative North {deg}
  0,                                      !- X Origin {m}
  0,                                      !- Y Origin {m}
  0,                                      !- Z Origin {m}
  {e4eff68b-9c47-4aef-adbf-c332e0ac2907}, !- Building Story Name
  {e30baf2b-7603-4e37-953a-ea26bf9b405f}; !- Thermal Zone Name

OS:Space,
  {31587caa-1d95-4865-903c-b9598755825b}, !- Handle
  "North Perim Plnm (BB.N11)",            !- Name
  ,                                       !- Space Type Name
  ,                                       !- Default Construction Set Name
  ,                                       !- Default Schedule Set Name
  -0,                                     !- Direction of Relative North {deg}
  0,                                      !- X Origin {m}
  0,                                      !- Y Origin {m}
  0,                                      !- Z Origin {m}
  {e4eff68b-9c47-4aef-adbf-c332e0ac2907}, !- Building Story Name
  {65ace9b4-56d1-4e72-afef-f788b5f6a6cf}; !- Thermal Zone Name

OS:Space,
  {1fe8bb5e-7fef-4482-b17e-f51e42eec3e6}, !- Handle
  "NE Perim Plnm (BB.NE12)",              !- Name
  ,                                       !- Space Type Name
  ,                                       !- Default Construction Set Name
  ,                                       !- Default Schedule Set Name
  -0,                                     !- Direction of Relative North {deg}
  0,                                      !- X Origin {m}
  0,                                      !- Y Origin {m}
  0,                                      !- Z Origin {m}
  {e4eff68b-9c47-4aef-adbf-c332e0ac2907}, !- Building Story Name
  {a6154e97-4b5d-491b-8296-20de01a6ab50}; !- Thermal Zone Name

OS:Space,
  {8eccc58d-f39a-4e3a-846e-36a445a5ebc1}, !- Handle
  "West Perim Plnm (BB.W13)",             !- Name
  ,                                       !- Space Type Name
  ,                                       !- Default Construction Set Name
  ,                                       !- Default Schedule Set Name
  -0,                                     !- Direction of Relative North {deg}
  0,                                      !- X Origin {m}
  0,                                      !- Y Origin {m}
  0,                                      !- Z Origin {m}
  {e4eff68b-9c47-4aef-adbf-c332e0ac2907}, !- Building Story Name
  {039b5240-e0f3-4abc-be60-033687d491f9}; !- Thermal Zone Name

OS:Space,
  {a81e3fa4-d351-45ab-ad39-8ded1bfb61a3}, !- Handle
  "NW Perim Plnm (BB.NW14)",              !- Name
  ,                                       !- Space Type Name
  ,                                       !- Default Construction Set Name
  ,                                       !- Default Schedule Set Name
  -0,                                     !- Direction of Relative North {deg}
  0,                                      !- X Origin {m}
  0,                                      !- Y Origin {m}
  0,                                      !- Z Origin {m}
  {e4eff68b-9c47-4aef-adbf-c332e0ac2907}, !- Building Story Name
  {0400e64c-5704-4359-a1af-956a1c71263f}; !- Thermal Zone Name

OS:Space,
  {3bd0c210-dabd-4587-b0ad-664c6fa1b46a}, !- Handle
  "South Perim Plnm (BB.S15)",            !- Name
  ,                                       !- Space Type Name
  ,                                       !- Default Construction Set Name
  ,                                       !- Default Schedule Set Name
  -0,                                     !- Direction of Relative North {deg}
  0,                                      !- X Origin {m}
  0,                                      !- Y Origin {m}
  0,                                      !- Z Origin {m}
  {e4eff68b-9c47-4aef-adbf-c332e0ac2907}, !- Building Story Name
  {851be290-fa85-416d-b74b-eb99021531e8}; !- Thermal Zone Name

OS:Space,
  {1df48cbb-3d0f-400b-ae58-c36aabba0ba8}, !- Handle
  "West Perim Plnm (BB.W16)",             !- Name
  ,                                       !- Space Type Name
  ,                                       !- Default Construction Set Name
  ,                                       !- Default Schedule Set Name
  -0,                                     !- Direction of Relative North {deg}
  0,                                      !- X Origin {m}
  0,                                      !- Y Origin {m}
  0,                                      !- Z Origin {m}
  {e4eff68b-9c47-4aef-adbf-c332e0ac2907}, !- Building Story Name
  {cb33e165-3a97-425b-9b3c-cc3723ae594b}; !- Thermal Zone Name

OS:Space,
  {fb576291-4b78-4bdb-9308-0c41647512eb}, !- Handle
  "SE Perim Spc (UB.SE17)",               !- Name
  ,                                       !- Space Type Name
  ,                                       !- Default Construction Set Name
  ,                                       !- Default Schedule Set Name
  -0,                                     !- Direction of Relative North {deg}
  0,                                      !- X Origin {m}
  0,                                      !- Y Origin {m}
  0,                                      !- Z Origin {m}
  {23b24f38-de9c-4ae5-a12a-430e8e2d6275}, !- Building Story Name
  {7e9893c3-17f5-430a-bab2-dbd4dceb291e}; !- Thermal Zone Name

OS:Space,
  {87972f18-e8b1-4e80-b01f-56c73cc44169}, !- Handle
  "SE Perim Spc (UB.SE18)",               !- Name
  ,                                       !- Space Type Name
  ,                                       !- Default Construction Set Name
  ,                                       !- Default Schedule Set Name
  -0,                                     !- Direction of Relative North {deg}
  0,                                      !- X Origin {m}
  0,                                      !- Y Origin {m}
  0,                                      !- Z Origin {m}
  {23b24f38-de9c-4ae5-a12a-430e8e2d6275}, !- Building Story Name
  {6684a926-1b03-4dd6-bf6a-f1e73524c798}; !- Thermal Zone Name

OS:Space,
  {66be79da-4382-47af-88d2-17c3c3e009ec}, !- Handle
  "North Perim Spc (UB.N19)",             !- Name
  ,                                       !- Space Type Name
  ,                                       !- Default Construction Set Name
  ,                                       !- Default Schedule Set Name
  -0,                                     !- Direction of Relative North {deg}
  0,                                      !- X Origin {m}
  0,                                      !- Y Origin {m}
  0,                                      !- Z Origin {m}
  {23b24f38-de9c-4ae5-a12a-430e8e2d6275}, !- Building Story Name
  {7069bb6a-7eec-47a3-9dcc-9036b6884a01}; !- Thermal Zone Name

OS:Space,
  {72739558-17bf-41ca-ac42-1c6c641c4af0}, !- Handle
  "NE Perim Spc (UB.NE20)",               !- Name
  ,                                       !- Space Type Name
  ,                                       !- Default Construction Set Name
  ,                                       !- Default Schedule Set Name
  -0,                                     !- Direction of Relative North {deg}
  0,                                      !- X Origin {m}
  0,                                      !- Y Origin {m}
  0,                                      !- Z Origin {m}
  {23b24f38-de9c-4ae5-a12a-430e8e2d6275}, !- Building Story Name
  {85a1461b-4ed2-4a71-a302-abe94b01ee53}; !- Thermal Zone Name

OS:Space,
  {ab799bfc-f1aa-4e50-a495-c30c6e809129}, !- Handle
  "West Perim Spc (UB.W21)",              !- Name
  ,                                       !- Space Type Name
  ,                                       !- Default Construction Set Name
  ,                                       !- Default Schedule Set Name
  -0,                                     !- Direction of Relative North {deg}
  0,                                      !- X Origin {m}
  0,                                      !- Y Origin {m}
  0,                                      !- Z Origin {m}
  {23b24f38-de9c-4ae5-a12a-430e8e2d6275}, !- Building Story Name
  {4b481b69-ce2c-4ff8-ad82-9086027a0c0b}; !- Thermal Zone Name

OS:Space,
  {9c1f3ec8-411d-43eb-b6ad-df5acc9704e6}, !- Handle
  "NW Perim Spc (UB.NW22)",               !- Name
  ,                                       !- Space Type Name
  ,                                       !- Default Construction Set Name
  ,                                       !- Default Schedule Set Name
  -0,                                     !- Direction of Relative North {deg}
  0,                                      !- X Origin {m}
  0,                                      !- Y Origin {m}
  0,                                      !- Z Origin {m}
  {23b24f38-de9c-4ae5-a12a-430e8e2d6275}, !- Building Story Name
  {714a6307-2377-464f-9f15-90d292c6a662}; !- Thermal Zone Name

OS:Space,
  {8e228f72-1c23-4aa0-be78-14712d998502}, !- Handle
  "South Perim Spc (UB.S23)",             !- Name
  ,                                       !- Space Type Name
  ,                                       !- Default Construction Set Name
  ,                                       !- Default Schedule Set Name
  -0,                                     !- Direction of Relative North {deg}
  0,                                      !- X Origin {m}
  0,                                      !- Y Origin {m}
  0,                                      !- Z Origin {m}
  {23b24f38-de9c-4ae5-a12a-430e8e2d6275}, !- Building Story Name
  {bca9d3e5-deac-4610-8059-3aae7c21129a}; !- Thermal Zone Name

OS:Space,
  {112d2f87-a33e-436e-85bd-3d0d38220009}, !- Handle
  "West Perim Spc (UB.W24)",              !- Name
  ,                                       !- Space Type Name
  ,                                       !- Default Construction Set Name
  ,                                       !- Default Schedule Set Name
  -0,                                     !- Direction of Relative North {deg}
  0,                                      !- X Origin {m}
  0,                                      !- Y Origin {m}
  0,                                      !- Z Origin {m}
  {23b24f38-de9c-4ae5-a12a-430e8e2d6275}, !- Building Story Name
  {ecfc78b4-c479-40b7-a732-da2d145cc5d7}; !- Thermal Zone Name

OS:Space,
  {a8cb9977-3114-4a09-9c00-76593917add6}, !- Handle
  "SE Perim Plnm (UB.SE25)",              !- Name
  ,                                       !- Space Type Name
  ,                                       !- Default Construction Set Name
  ,                                       !- Default Schedule Set Name
  -0,                                     !- Direction of Relative North {deg}
  0,                                      !- X Origin {m}
  0,                                      !- Y Origin {m}
  0,                                      !- Z Origin {m}
  {23b24f38-de9c-4ae5-a12a-430e8e2d6275}, !- Building Story Name
  {1b69cbfb-2c4a-4638-8c13-c18bb399c40b}; !- Thermal Zone Name

OS:Space,
  {2086f939-be93-42c1-b254-704b310f27ef}, !- Handle
  "SE Perim Plnm (UB.SE26)",              !- Name
  ,                                       !- Space Type Name
  ,                                       !- Default Construction Set Name
  ,                                       !- Default Schedule Set Name
  -0,                                     !- Direction of Relative North {deg}
  0,                                      !- X Origin {m}
  0,                                      !- Y Origin {m}
  0,                                      !- Z Origin {m}
  {23b24f38-de9c-4ae5-a12a-430e8e2d6275}, !- Building Story Name
  {48d900fe-f5ce-4503-96ce-5c1444c41fcf}; !- Thermal Zone Name

OS:Space,
  {140f70e2-f157-4cb4-ae14-8bae3004b388}, !- Handle
  "North Perim Plnm (UB.N27)",            !- Name
  ,                                       !- Space Type Name
  ,                                       !- Default Construction Set Name
  ,                                       !- Default Schedule Set Name
  -0,                                     !- Direction of Relative North {deg}
  0,                                      !- X Origin {m}
  0,                                      !- Y Origin {m}
  0,                                      !- Z Origin {m}
  {23b24f38-de9c-4ae5-a12a-430e8e2d6275}, !- Building Story Name
  {83603cb1-389c-4eb7-ae53-e141e7be372f}; !- Thermal Zone Name

OS:Space,
  {1e75e0c0-9a21-46a7-97ab-3566565d606f}, !- Handle
  "NE Perim Plnm (UB.NE28)",              !- Name
  ,                                       !- Space Type Name
  ,                                       !- Default Construction Set Name
  ,                                       !- Default Schedule Set Name
  -0,                                     !- Direction of Relative North {deg}
  0,                                      !- X Origin {m}
  0,                                      !- Y Origin {m}
  0,                                      !- Z Origin {m}
  {23b24f38-de9c-4ae5-a12a-430e8e2d6275}, !- Building Story Name
  {22611405-ba6d-4363-88a4-c8d8c05fc46b}; !- Thermal Zone Name

OS:Space,
  {1748bc52-0485-4ab1-8f3d-1d595b896bf6}, !- Handle
  "West Perim Plnm (UB.W29)",             !- Name
  ,                                       !- Space Type Name
  ,                                       !- Default Construction Set Name
  ,                                       !- Default Schedule Set Name
  -0,                                     !- Direction of Relative North {deg}
  0,                                      !- X Origin {m}
  0,                                      !- Y Origin {m}
  0,                                      !- Z Origin {m}
  {23b24f38-de9c-4ae5-a12a-430e8e2d6275}, !- Building Story Name
  {71e9c5e2-bd46-4c2d-8461-1742f511b671}; !- Thermal Zone Name

OS:Space,
  {2bab298f-8e2a-454f-81d5-65b2b3b3749a}, !- Handle
  "NW Perim Plnm (UB.NW30)",              !- Name
  ,                                       !- Space Type Name
  ,                                       !- Default Construction Set Name
  ,                                       !- Default Schedule Set Name
  -0,                                     !- Direction of Relative North {deg}
  0,                                      !- X Origin {m}
  0,                                      !- Y Origin {m}
  0,                                      !- Z Origin {m}
  {23b24f38-de9c-4ae5-a12a-430e8e2d6275}, !- Building Story Name
  {08a313c5-f0cb-4cb7-8f32-9da3b330bc5f}; !- Thermal Zone Name

OS:Space,
  {30024fd9-4467-445d-974b-7207d28652ce}, !- Handle
  "South Perim Plnm (UB.S31)",            !- Name
  ,                                       !- Space Type Name
  ,                                       !- Default Construction Set Name
  ,                                       !- Default Schedule Set Name
  -0,                                     !- Direction of Relative North {deg}
  0,                                      !- X Origin {m}
  0,                                      !- Y Origin {m}
  0,                                      !- Z Origin {m}
  {23b24f38-de9c-4ae5-a12a-430e8e2d6275}, !- Building Story Name
  {6ac127c0-7d8c-46ab-9247-541a7586d7da}; !- Thermal Zone Name

OS:Space,
  {08fbd2f7-778e-4788-a094-51972d9ee543}, !- Handle
  "West Perim Plnm (UB.W32)",             !- Name
  ,                                       !- Space Type Name
  ,                                       !- Default Construction Set Name
  ,                                       !- Default Schedule Set Name
  -0,                                     !- Direction of Relative North {deg}
  0,                                      !- X Origin {m}
  0,                                      !- Y Origin {m}
  0,                                      !- Z Origin {m}
  {23b24f38-de9c-4ae5-a12a-430e8e2d6275}, !- Building Story Name
  {b906e0e0-967c-4868-8db9-19cafceb9a40}; !- Thermal Zone Name

OS:Space,
  {bcf2bbcb-f67b-4c63-8fc3-551cf5aaef41}, !- Handle
  "SE Perim Spc (G.SE33)",                !- Name
  ,                                       !- Space Type Name
  ,                                       !- Default Construction Set Name
  ,                                       !- Default Schedule Set Name
  -0,                                     !- Direction of Relative North {deg}
  0,                                      !- X Origin {m}
  0,                                      !- Y Origin {m}
  0,                                      !- Z Origin {m}
  {7f43ac22-099c-4e0c-8f60-7fcdc734d361}, !- Building Story Name
  {ae05607e-1cf0-47ff-bff2-03922931fdb5}; !- Thermal Zone Name

OS:Space,
  {6115112c-6d98-4804-ae75-8b7688877b9e}, !- Handle
  "SE Perim Spc (G.SE34)",                !- Name
  ,                                       !- Space Type Name
  ,                                       !- Default Construction Set Name
  ,                                       !- Default Schedule Set Name
  -0,                                     !- Direction of Relative North {deg}
  0,                                      !- X Origin {m}
  0,                                      !- Y Origin {m}
  0,                                      !- Z Origin {m}
  {7f43ac22-099c-4e0c-8f60-7fcdc734d361}, !- Building Story Name
  {f83bd704-801b-4a06-ab76-1437fa744511}; !- Thermal Zone Name

OS:Space,
  {fce97149-224b-430d-8acb-caffc6580522}, !- Handle
  "North Perim Spc (G.N35)",              !- Name
  ,                                       !- Space Type Name
  ,                                       !- Default Construction Set Name
  ,                                       !- Default Schedule Set Name
  -0,                                     !- Direction of Relative North {deg}
  0,                                      !- X Origin {m}
  0,                                      !- Y Origin {m}
  0,                                      !- Z Origin {m}
  {7f43ac22-099c-4e0c-8f60-7fcdc734d361}, !- Building Story Name
  {018294a6-a824-49cf-becf-604e0e83024e}; !- Thermal Zone Name

OS:Space,
  {26977184-b31b-4f5e-b784-bac15585d80f}, !- Handle
  "NE Perim Spc (G.NE36)",                !- Name
  ,                                       !- Space Type Name
  ,                                       !- Default Construction Set Name
  ,                                       !- Default Schedule Set Name
  -0,                                     !- Direction of Relative North {deg}
  0,                                      !- X Origin {m}
  0,                                      !- Y Origin {m}
  0,                                      !- Z Origin {m}
  {7f43ac22-099c-4e0c-8f60-7fcdc734d361}, !- Building Story Name
  {5a61405c-8a1f-49f1-a7c9-ad6db586edb1}; !- Thermal Zone Name

OS:Space,
  {7e790d18-9381-4422-8b10-51db1e6b72ba}, !- Handle
  "West Perim Spc (G.W37)",               !- Name
  ,                                       !- Space Type Name
  ,                                       !- Default Construction Set Name
  ,                                       !- Default Schedule Set Name
  -0,                                     !- Direction of Relative North {deg}
  0,                                      !- X Origin {m}
  0,                                      !- Y Origin {m}
  0,                                      !- Z Origin {m}
  {7f43ac22-099c-4e0c-8f60-7fcdc734d361}, !- Building Story Name
  {72e31a74-2f1d-4f7a-815e-ca427d2774ed}; !- Thermal Zone Name

OS:Space,
  {016c8eba-e788-4043-8751-293806e8b6b4}, !- Handle
  "NW Perim Spc (G.NW38)",                !- Name
  ,                                       !- Space Type Name
  ,                                       !- Default Construction Set Name
  ,                                       !- Default Schedule Set Name
  -0,                                     !- Direction of Relative North {deg}
  0,                                      !- X Origin {m}
  0,                                      !- Y Origin {m}
  0,                                      !- Z Origin {m}
  {7f43ac22-099c-4e0c-8f60-7fcdc734d361}, !- Building Story Name
  {6cc30670-b175-4f61-86e3-bb3e3e9086da}; !- Thermal Zone Name

OS:Space,
  {29f83b3c-2c96-408c-b7ed-09e22d93bebd}, !- Handle
  "South Perim Spc (G.S39)",              !- Name
  ,                                       !- Space Type Name
  ,                                       !- Default Construction Set Name
  ,                                       !- Default Schedule Set Name
  -0,                                     !- Direction of Relative North {deg}
  0,                                      !- X Origin {m}
  0,                                      !- Y Origin {m}
  0,                                      !- Z Origin {m}
  {7f43ac22-099c-4e0c-8f60-7fcdc734d361}, !- Building Story Name
  {245c8815-7b3d-4ca5-9e99-243a91923bec}; !- Thermal Zone Name

OS:Space,
  {df868010-3680-4e66-8e25-d08ae58fc83e}, !- Handle
  "West Perim Spc (G.W40)",               !- Name