
OS:Version,
  {86f51701-3ccf-4349-8c6c-63e5b4fc6e9d}, !- Handle
  1.7.0;                                  !- Version Identifier

OS:BuildingStory,
  {daed8a9b-96bc-4ec0-9953-a858c55d5e23}, !- Handle
  "Bottom Below-Grade Flr",               !- Name
  ,                                       !- Nominal Z Coordinate {m}
  ,                                       !- Nominal Floor to Floor Height {m}
  ,                                       !- Default Construction Set Name
  ,                                       !- Default Schedule Set Name
  ;                                       !- Group Rendering Name

OS:BuildingStory,
  {39fd81c0-f693-4078-b6c6-ce62c5da3668}, !- Handle
  "Upper Below-Grade Flr",                !- Name
  ,                                       !- Nominal Z Coordinate {m}
  ,                                       !- Nominal Floor to Floor Height {m}
  ,                                       !- Default Construction Set Name
  ,                                       !- Default Schedule Set Name
  ;                                       !- Group Rendering Name

OS:BuildingStory,
  {18b62140-07d5-4c25-af25-e2266f5385d9}, !- Handle
  "Ground Flr",                           !- Name
  ,                                       !- Nominal Z Coordinate {m}
  ,                                       !- Nominal Floor to Floor Height {m}
  ,                                       !- Default Construction Set Name
  ,                                       !- Default Schedule Set Name
  ;                                       !- Group Rendering Name

OS:BuildingStory,
  {9b117224-0a76-48dd-ae52-1f68b943c809}, !- Handle
  "Above-Grade Flr",                      !- Name
  ,                                       !- Nominal Z Coordinate {m}
  ,                                       !- Nominal Floor to Floor Height {m}
  ,                                       !- Default Construction Set Name
  ,                                       !- Default Schedule Set Name
  ;                                       !- Group Rendering Name

OS:BuildingStory,
  {eb3211ab-353e-480d-8ed6-b242dd642a14}, !- Handle
  "Top Abv-Grade Flr",                    !- Name
  ,                                       !- Nominal Z Coordinate {m}
  ,                                       !- Nominal Floor to Floor Height {m}
  ,                                       !- Default Construction Set Name
  ,                                       !- Default Schedule Set Name
  ;                                       !- Group Rendering Name

OS:Space,
  {96dcd3f2-119b-4e38-a910-1a74bf708312}, !- Handle
  "South Perim Spc (BB.S1)",              !- Name
  ,                                       !- Space Type Name
  ,                                       !- Default Construction Set Name
  ,                                       !- Default Schedule Set Name
  -0,                                     !- Direction of Relative North {deg}
  0,                                      !- X Origin {m}
  0,                                      !- Y Origin {m}
  0,                                      !- Z Origin {m}
  {daed8a9b-96bc-4ec0-9953-a858c55d5e23}, !- Building Story Name
  {d51e4526-2640-4274-9112-03fc712256bd}; !- Thermal Zone Name

OS:Space,
  {9a65e355-36dc-486d-9255-f725f601fbf9}, !- Handle
  "NE Perim Spc (BB.NE2)",                !- Name
  ,                                       !- Space Type Name
  ,                                       !- Default Construction Set Name
  ,                                       !- Default Schedule Set Name
  -0,                                     !- Direction of Relative North {deg}
  0,                                      !- X Origin {m}
  0,                                      !- Y Origin {m}
  0,                                      !- Z Origin {m}
  {daed8a9b-96bc-4ec0-9953-a858c55d5e23}, !- Building Story Name
  {44fd1230-281a-467c-acba-587e6a3ae9f5}; !- Thermal Zone Name

OS:Space,
  {0c1b56e0-0928-4469-86d7-2a0862ac806e}, !- Handle
  "East Perim Spc (BB.E3)",               !- Name
  ,                                       !- Space Type Name
  ,                                       !- Default Construction Set Name
  ,                                       !- Default Schedule Set Name
  -0,                                     !- Direction of Relative North {deg}
  0,                                      !- X Origin {m}
  0,                                      !- Y Origin {m}
  0,                                      !- Z Origin {m}
  {daed8a9b-96bc-4ec0-9953-a858c55d5e23}, !- Building Story Name
  {ada998df-8158-45df-a43b-6ba1c03ca660}; !- Thermal Zone Name

OS:Space,
  {3a4ab6d2-b5a2-47be-a892-53cff742ddbc}, !- Handle
  "NW Perim Spc (BB.NW4)",                !- Name
  ,                                       !- Space Type Name
  ,                                       !- Default Construction Set Name
  ,                                       !- Default Schedule Set Name
  -0,                                     !- Direction of Relative North {deg}
  0,                                      !- X Origin {m}
  0,                                      !- Y Origin {m}
  0,                                      !- Z Origin {m}
  {daed8a9b-96bc-4ec0-9953-a858c55d5e23}, !- Building Story Name
  {e6a76638-1dab-49f7-a245-b2f8ee3ac382}; !- Thermal Zone Name

OS:Space,
  {607d6fb5-8ade-46e3-8e53-090cf877117c}, !- Handle
  "NW Perim Spc (BB.NW5)",                !- Name
  ,                                       !- Space Type Name
  ,                                       !- Default Construction Set Name
  ,                                       !- Default Schedule Set Name
  -0,                                     !- Direction of Relative North {deg}
  0,                                      !- X Origin {m}
  0,                                      !- Y Origin {m}
  0,                                      !- Z Origin {m}
  {daed8a9b-96bc-4ec0-9953-a858c55d5e23}, !- Building Story Name
  {13281234-73ff-46ac-acf5-581ebb61cb61}; !- Thermal Zone Name

OS:Space,
  {58d6ee7f-2443-468f-beb2-3e28666d4394}, !- Handle
  "Core Spc (BB.C6)",                     !- Name
  ,                                       !- Space Type Name
  ,                                       !- Default Construction Set Name
  ,                                       !- Default Schedule Set Name
  -0,                                     !- Direction of Relative North {deg}
  0,                                      !- X Origin {m}
  0,                                      !- Y Origin {m}
  0,                                      !- Z Origin {m}
  {daed8a9b-96bc-4ec0-9953-a858c55d5e23}, !- Building Story Name
  {74e379f7-6d41-4011-bdb5-4026de2caaa9}; !- Thermal Zone Name

OS:Space,
  {944679dd-c49e-44b1-a310-16b9dfd15755}, !- Handle
  "South Perim Plnm (BB.S7)",             !- Name
  ,                                       !- Space Type Name
  ,                                       !- Default Construction Set Name
  ,                                       !- Default Schedule Set Name
  -0,                                     !- Direction of Relative North {deg}
  0,                                      !- X Origin {m}
  0,                                      !- Y Origin {m}
  0,                                      !- Z Origin {m}
  {daed8a9b-96bc-4ec0-9953-a858c55d5e23}, !- Building Story Name
  {10ee0003-c078-4ca2-905d-7ab5089301a9}; !- Thermal Zone Name

OS:Space,
  {3443cec3-5a13-4603-8ad8-8a9fd701a5f0}, !- Handle
  "NE Perim Plnm (BB.NE8)",               !- Name
  ,                                       !- Space Type Name
  ,                                       !- Default Construction Set Name
  ,                                       !- Default Schedule Set Name
  -0,                                     !- Direction of Relative North {deg}
  0,                                      !- X Origin {m}
  0,                                      !- Y Origin {m}
  0,                                      !- Z Origin {m}
  {daed8a9b-96bc-4ec0-9953-a858c55d5e23}, !- Building Story Name
  {d95ed92a-c11d-4dc5-b512-9358e528eaf5}; !- Thermal Zone Name

OS:Space,
  {8ff78af9-8a7f-494f-a28b-632661d5ce44}, !- Handle
  "East Perim Plnm (BB.E9)",              !- Name
  ,                                       !- Space Type Name
  ,                                       !- Default Construction Set Name
  ,                                       !- Default Schedule Set Name
  -0,                                     !- Direction of Relative North {deg}
  0,                                      !- X Origin {m}
  0,                                      !- Y Origin {m}
  0,                                      !- Z Origin {m}
  {daed8a9b-96bc-4ec0-9953-a858c55d5e23}, !- Building Story Name
  {19860cf4-22cd-4179-bcaf-8c572ea3a036}; !- Thermal Zone Name

OS:Space,
  {928b501e-4052-4d13-9363-3f0f52bb2131}, !- Handle
  "NW Perim Plnm (BB.NW10)",              !- Name
  ,                                       !- Space Type Name
  ,                                       !- Default Construction Set Name
  ,                                       !- Default Schedule Set Name
  -0,                                     !- Direction of Relative North {deg}
  0,                                      !- X Origin {m}
  0,                                      !- Y Origin {m}
  0,                                      !- Z Origin {m}
  {daed8a9b-96bc-4ec0-9953-a858c55d5e23}, !- Building Story Name
  {0b99e064-185b-4b6e-aeb4-f5b6fa5e4f9a}; !- Thermal Zone Name

OS:Space,
  {8cbaea06-ef63-4f4b-9382-c4ce26d1e886}, !- Handle
  "NW Perim Plnm (BB.NW11)",              !- Name
  ,                                       !- Space Type Name
  ,                                       !- Default Construction Set Name
  ,                                       !- Default Schedule Set Name
  -0,                                     !- Direction of Relative North {deg}
  0,                                      !- X Origin {m}
  0,                                      !- Y Origin {m}
  0,                                      !- Z Origin {m}
  {daed8a9b-96bc-4ec0-9953-a858c55d5e23}, !- Building Story Name
  {40f22101-8f8f-44ef-a03b-aa9e9ee6978b}; !- Thermal Zone Name

OS:Space,
  {ec26d206-8885-4b34-94bf-ef71d31c5f17}, !- Handle
  "Core Plnm (BB.C12)",                   !- Name
  ,                                       !- Space Type Name
  ,                                       !- Default Construction Set Name
  ,                                       !- Default Schedule Set Name
  -0,                                     !- Direction of Relative North {deg}
  0,                                      !- X Origin {m}
  0,                                      !- Y Origin {m}
  0,                                      !- Z Origin {m}
  {daed8a9b-96bc-4ec0-9953-a858c55d5e23}, !- Building Story Name
  {2eae30f4-6655-4251-88d0-36a9b32ba99c}; !- Thermal Zone Name

OS:Space,
  {af367528-287e-4344-b089-44f1673b3a3d}, !- Handle
  "South Perim Spc (UB.S13)",             !- Name
  ,                                       !- Space Type Name
  ,                                       !- Default Construction Set Name
  ,                                       !- Default Schedule Set Name
  -0,                                     !- Direction of Relative North {deg}
  0,                                      !- X Origin {m}
  0,                                      !- Y Origin {m}
  0,                                      !- Z Origin {m}
  {39fd81c0-f693-4078-b6c6-ce62c5da3668}, !- Building Story Name
  {ed3a009c-6d30-4298-a6d1-445e5d3766d8}; !- Thermal Zone Name

OS:Space,
  {e8f9bb80-c6e7-43ff-9fe1-02fa7cef0049}, !- Handle
  "NE Perim Spc (UB.NE14)",               !- Name
  ,                                       !- Space Type Name
  ,                                       !- Default Construction Set Name
  ,                                       !- Default Schedule Set Name
  -0,                                     !- Direction of Relative North {deg}
  0,                                      !- X Origin {m}
  0,                                      !- Y Origin {m}
  0,                                      !- Z Origin {m}
  {39fd81c0-f693-4078-b6c6-ce62c5da3668}, !- Building Story Name
  {84952b7c-5d9e-48eb-b658-dca293b99271}; !- Thermal Zone Name

OS:Space,
  {4245880b-65de-4e28-a998-52ded215ce70}, !- Handle
  "East Perim Spc (UB.E15)",              !- Name
  ,                                       !- Space Type Name
  ,                                       !- Default Construction Set Name
  ,                                       !- Default Schedule Set Name
  -0,                                     !- Direction of Relative North {deg}
  0,                                      !- X Origin {m}
  0,                                      !- Y Origin {m}
  0,                                      !- Z Origin {m}
  {39fd81c0-f693-4078-b6c6-ce62c5da3668}, !- Building Story Name
  {65585bea-b088-4687-946a-b592df4585a2}; !- Thermal Zone Name

OS:Space,
  {42cd5f18-435e-4a61-a896-d368af171fb4}, !- Handle
  "NW Perim Spc (UB.NW16)",               !- Name
  ,                                       !- Space Type Name
  ,                                       !- Default Construction Set Name
  ,                                       !- Default Schedule Set Name
  -0,                                     !- Direction of Relative North {deg}
  0,                                      !- X Origin {m}
  0,                                      !- Y Origin {m}
  0,                                      !- Z Origin {m}
  {39fd81c0-f693-4078-b6c6-ce62c5da3668}, !- Building Story Name
  {d5baedd6-d2cb-48ac-92ed-0c5775878fad}; !- Thermal Zone Name

OS:Space,
  {d220eccc-ea84-4db4-9ae6-0280e4dfe109}, !- Handle
  "NW Perim Spc (UB.NW17)",               !- Name
  ,                                       !- Space Type Name
  ,                                       !- Default Construction Set Name
  ,                                       !- Default Schedule Set Name
  -0,                                     !- Direction of Relative North {deg}
  0,                                      !- X Origin {m}
  0,                                      !- Y Origin {m}
  0,                                      !- Z Origin {m}
  {39fd81c0-f693-4078-b6c6-ce62c5da3668}, !- Building Story Name
  {344746e0-4f3e-4c04-ad82-e42e0b7cfaf7}; !- Thermal Zone Name

OS:Space,
  {1baea192-e169-4499-8edb-3e4d9ac520ae}, !- Handle
  "Core Spc (UB.C18)",                    !- Name
  ,                                       !- Space Type Name
  ,                                       !- Default Construction Set Name
  ,                                       !- Default Schedule Set Name
  -0,                                     !- Direction of Relative North {deg}
  0,                                      !- X Origin {m}
  0,                                      !- Y Origin {m}
  0,                                      !- Z Origin {m}
  {39fd81c0-f693-4078-b6c6-ce62c5da3668}, !- Building Story Name
  {3df65ca7-1912-42d7-89d9-24f108aa0c05}; !- Thermal Zone Name

OS:Space,
  {f453a1d7-bc48-4943-a3ed-e17136d2697d}, !- Handle
  "South Perim Plnm (UB.S19)",            !- Name
  ,                                       !- Space Type Name
  ,                                       !- Default Construction Set Name
  ,                                       !- Default Schedule Set Name
  -0,                                     !- Direction of Relative North {deg}
  0,                                      !- X Origin {m}
  0,                                      !- Y Origin {m}
  0,                                      !- Z Origin {m}
  {39fd81c0-f693-4078-b6c6-ce62c5da3668}, !- Building Story Name
  {e12a1c6a-8f7c-49ec-9675-99ce28858d22}; !- Thermal Zone Name

OS:Space,
  {e70ff998-8529-466c-8755-39cc0cf998a7}, !- Handle
  "NE Perim Plnm (UB.NE20)",              !- Name
  ,                                       !- Space Type Name
  ,                                       !- Default Construction Set Name
  ,                                       !- Default Schedule Set Name
  -0,                                     !- Direction of Relative North {deg}
  0,                                      !- X Origin {m}
  0,                                      !- Y Origin {m}
  0,                                      !- Z Origin {m}
  {39fd81c0-f693-4078-b6c6-ce62c5da3668}, !- Building Story Name
  {a154f247-78db-4cca-abeb-822641522b17}; !- Thermal Zone Name

OS:Space,
  {2e6f3fa8-f67f-4513-bbd5-f02463b4747d}, !- Handle
  "East Perim Plnm (UB.E21)",             !- Name
  ,                                       !- Space Type Name
  ,                                       !- Default Construction Set Name
  ,                                       !- Default Schedule Set Name
  -0,                                     !- Direction of Relative North {deg}
  0,                                      !- X Origin {m}
  0,                                      !- Y Origin {m}
  0,                                      !- Z Origin {m}
  {39fd81c0-f693-4078-b6c6-ce62c5da3668}, !- Building Story Name
  {1fc76adc-8200-4e4c-9a19-d8faf460e68b}; !- Thermal Zone Name

OS:Space,
  {4e690ea4-5a9e-49fd-943c-c06ab8836027}, !- Handle
  "NW Perim Plnm (UB.NW22)",              !- Name
  ,                                       !- Space Type Name
  ,                                       !- Default Construction Set Name
  ,                                       !- Default Schedule Set Name
  -0,                                     !- Direction of Relative North {deg}
  0,                                      !- X Origin {m}
  0,                                      !- Y Origin {m}
  0,                                      !- Z Origin {m}
  {39fd81c0-f693-4078-b6c6-ce62c5da3668}, !- Building Story Name
  {066a01fc-6868-43d4-b392-5e5f034c0260}; !- Thermal Zone Name

OS:Space,
  {c73d9c38-1814-492b-a8ec-0afd89c691a1}, !- Handle
  "NW Perim Plnm (UB.NW23)",              !- Name
  ,                                       !- Space Type Name
  ,                                       !- Default Construction Set Name
  ,                                       !- Default Schedule Set Name
  -0,                                     !- Direction of Relative North {deg}
  0,                                      !- X Origin {m}
  0,                                      !- Y Origin {m}
  0,                                      !- Z Origin {m}
  {39fd81c0-f693-4078-b6c6-ce62c5da3668}, !- Building Story Name
  {8e489437-ad82-48bc-bbfe-195ad62e94f6}; !- Thermal Zone Name

OS:Space,
  {4d95de29-326a-4dab-8c3b-826c21794bb5}, !- Handle
  "Core Plnm (UB.C24)",                   !- Name
  ,                                       !- Space Type Name
  ,                                       !- Default Construction Set Name
  ,                                       !- Default Schedule Set Name
  -0,                                     !- Direction of Relative North {deg}
  0,                                      !- X Origin {m}
  0,                                      !- Y Origin {m}
  0,                                      !- Z Origin {m}
  {39fd81c0-f693-4078-b6c6-ce62c5da3668}, !- Building Story Name
  {7178b257-3170-43c3-8411-f2331e8a87b5}; !- Thermal Zone Name

OS:Space,
  {ca3489cc-1335-4a38-95c4-3a5224c316a2}, !- Handle
  "South Perim Spc (G.S25)",              !- Name
  ,                                       !- Space Type Name
  ,                                       !- Default Construction Set Name
  ,                                       !- Default Schedule Set Name
  -0,                                     !- Direction of Relative North {deg}
  0,                                      !- X Origin {m}
  0,                                      !- Y Origin {m}
  0,                                      !- Z Origin {m}
  {18b62140-07d5-4c25-af25-e2266f5385d9}, !- Building Story Name
  {bec8d367-b2fd-441c-915a-405eee90837e}; !- Thermal Zone Name

OS:Space,
  {807b18d1-a978-47ba-b246-e71b5affd27b}, !- Handle
  "NE Perim Spc (G.NE26)",                !- Name
  ,                                       !- Space Type Name
  ,                                       !- Default Construction Set Name
  ,                                       !- Default Schedule Set Name
  -0,                                     !- Direction of Relative North {deg}
  0,                                      !- X Origin {m}
  0,                                      !- Y Origin {m}
  0,                                      !- Z Origin {m}
  {18b62140-07d5-4c25-af25-e2266f5385d9}, !- Building Story Name
  {5cd6ce0b-778f-416a-9390-e09319242c85}; !- Thermal Zone Name

OS:Space,
  {15460768-d3b8-419b-bdee-b19f13facd5e}, !- Handle
  "East Perim Spc (G.E27)",               !- Name
  ,                                       !- Space Type Name
  ,                                       !- Default Construction Set Name
  ,                                       !- Default Schedule Set Name
  -0,                                     !- Direction of Relative North {deg}
  0,                                      !- X Origin {m}
  0,                                      !- Y Origin {m}
  0,                                      !- Z Origin {m}
  {18b62140-07d5-4c25-af25-e2266f5385d9}, !- Building Story Name
  {d9cb35c1-9f0f-4607-ae61-ccf82476f221}; !- Thermal Zone Name

OS:Space,
  {7bac7786-89b8-474c-9d61-1ecfd0f3e91e}, !- Handle
  "NW Perim Spc (G.NW28)",                !- Name
  ,                                       !- Space Type Name
  ,                                       !- Default Construction Set Name
  ,                                       !- Default Schedule Set Name
  -0,                                     !- Direction of Relative North {deg}
  0,                                      !- X Origin {m}
  0,                                      !- Y Origin {m}
  0,                                      !- Z Origin {m}
  {18b62140-07d5-4c25-af25-e2266f5385d9}, !- Building Story Name
  {66d6d3ef-b2a0-4de2-8244-09b094fffbf0}; !- Thermal Zone Name

OS:Space,
  {f0d7f591-ca12-4620-8ab8-2cc008d470af}, !- Handle
  "NW Perim Spc (G.NW29)",                !- Name
  ,                                       !- Space Type Name
  ,                                       !- Default Construction Set Name
  ,                                       !- Default Schedule Set Name
  -0,                                     !- Direction of Relative North {deg}
  0,                                      !- X Origin {m}
  0,                                      !- Y Origin {m}
  0,                                      !- Z Origin {m}
  {18b62140-07d5-4c25-af25-e2266f5385d9}, !- Building Story Name
  {75e44deb-d48d-4004-a79c-dee1ca917d43}; !- Thermal Zone Name

OS:Space,
  {6cb69e02-3ce7-4918-a082-e0757d9bcd90}, !- Handle
  "Core Spc (G.C30)",                     !- Name
  ,                                       !- Space Type Name
  ,                                       !- Default Construction Set Name
  ,                                       !- Default Schedule Set Name
  -0,                                     !- Direction of Relative North {deg}
  0,                                      !- X Origin {m}
  0,                                      !- Y Origin {m}
  0,                                      !- Z Origin {m}
  {18b62140-07d5-4c25-af25-e2266f5385d9}, !- Building Story Name
  {99438840-5e79-4c35-b605-b9a4d3029902}; !- Thermal Zone Name

OS:Space,
  {0bdee27a-6c0c-41ee-9c7c-24c4ba5e2cc0}, !- Handle
  "South Perim Plnm (G.S31)",             !- Name
  ,                                       !- Space Type Name
  ,                                       !- Default Construction Set Name
  ,                                       !- Default Schedule Set Name
  -0,                                     !- Direction of Relative North {deg}
  0,                                      !- X Origin {m}
  0,                                      !- Y Origin {m}
  0,                                      !- Z Origin {m}
  {18b62140-07d5-4c25-af25-e2266f5385d9}, !- Building Story Name
  {905a884d-fff9-4227-8a69-66fba6736fad}; !- Thermal Zone Name

OS:Space,
  {8fe7c914-c8fb-4f89-98b5-ce582169705e}, !- Handle
  "NE Perim Plnm (G.NE32)",               !- Name
  ,                                       !- Space Type Name
  ,                                       !- Default Construction Set Name
  ,                                       !- Default Schedule Set Name
  -0,                                     !- Direction of Relative North {deg}
  0,                                      !- X Origin {m}
  0,                                      !- Y Origin {m}
  0,                                      !- Z Origin {m}
  {18b62140-07d5-4c25-af25-e2266f5385d9}, !- Building Story Name
  {08cf8338-2825-421c-83af-7b33be197bff}; !- Thermal Zone Name

OS:Space,
  {9f1df21a-e7dc-48e1-9cad-885cdc1282a5}, !- Handle
  "East Perim Plnm (G.E33)",              !- Name
  ,                                       !- Space Type Name
  ,                                       !- Default Construction Set Name
  ,                                       !- Default Schedule Set Name
  -0,                                     !- Direction of Relative North {deg}
  0,                                      !- X Origin {m}
  0,                                      !- Y Origin {m}
  0,                                      !- Z Origin {m}
  {18b62140-07d5-4c25-af25-e2266f5385d9}, !- Building Story Name
  {40cf1873-d36e-4f78-a1f2-fa48dd533648}; !- Thermal Zone Name

OS:Space,
  {e7641d3d-921d-4661-97ad-8d3cf186bd03}, !- Handle
  "NW Perim Plnm (G.NW34)",               !- Name
  ,                                       !- Space Type Name
  ,                                       !- Default Construction Set Name
  ,                                       !- Default Schedule Set Name
  -0,                                     !- Direction of Relative North {deg}
  0,                                      !- X Origin {m}
  0,                                      !- Y Origin {m}
  0,                                      !- Z Origin {m}
  {18b62140-07d5-4c25-af25-e2266f5385d9}, !- Building Story Name
  {da689c26-dca7-4ee1-9cfc-5266fb600609}; !- Thermal Zone Name

OS:Space,
  {cc4d8126-c972-4bd5-9b46-5fd57f6a62fd}, !- Handle
  "NW Perim Plnm (G.NW35)",               !- Name
  ,                                       !- Space Type Name
  ,                                       !- Default Construction Set Name
  ,                                       !- Default Schedule Set Name
  -0,                                     !- Direction of Relative North {deg}
  0,                                      !- X Origin {m}
  0,                                      !- Y Origin {m}
  0,                                      !- Z Origin {m}
  {18b62140-07d5-4c25-af25-e2266f5385d9}, !- Building Story Name
  {def97a89-8c33-4edc-916d-14ebdde5acf4}; !- Thermal Zone Name

OS:Space,
  {e107b13a-d391-466c-9407-5905e397345c}, !- Handle
  "Core Plnm (G.C36)",                    !- Name
  ,                                       !- Space Type Name
  ,                                       !- Default Construction Set Name
  ,                                       !- Default Schedule Set Name
  -0,                                     !- Direction of Relative North {deg}
  0,                                      !- X Origin {m}
  0,                                      !- Y Origin {m}
  0,                                      !- Z Origin {m}
  {18b62140-07d5-4c25-af25-e2266f5385d9}, !- Building Story Name
  {b80c162f-3efc-4cc1-9fde-88fb394a3e5e}; !- Thermal Zone Name

OS:Space,
  {0724286c-e4fd-4f96-bce2-87853a75666d}, !- Handle
  "South Perim Spc (M.S37)",              !- Name
  ,                                       !- Space Type Name
  ,                                       !- Default Construction Set Name
  ,                                       !- Default Schedule Set Name
  -0,                                     !- Direction of Relative North {deg}
  0,                                      !- X Origin {m}
  0,                                      !- Y Origin {m}
  0,                                      !- Z Origin {m}
  {9b117224-0a76-48dd-ae52-1f68b943c809}, !- Building Story Name
  {842565c4-d9d8-4e0c-8b36-9b91a6969777}; !- Thermal Zone Name

OS:Space,
  {c333c59d-d74e-440c-b2b7-279d2ddae9d5}, !- Handle
  "NE Perim Spc (M.NE38)",                !- Name
  ,                                       !- Space Type Name
  ,                                       !- Default Construction Set Name
  ,                                       !- Default Schedule Set Name
  -0,                                     !- Direction of Relative North {deg}
  0,                                      !- X Origin {m}
  0,                                      !- Y Origin {m}
  0,                                      !- Z Origin {m}
  {9b117224-0a76-48dd-ae52-1f68b943c809}, !- Building Story Name
  {8aa894e6-3c6f-4977-b7e2-a61a2538a628}; !- Thermal Zone Name

OS:Space,
  {c5a4fa0d-6190-4815-95a9-d3dd0d1f5176}, !- Handle
  "East Perim Spc (M.E39)",               !- Name
  ,                                       !- Space Type Name
  ,                                       !- Default Construction Set Name
  ,                                       !- Default Schedule Set Name
  -0,                                     !- Direction of Relative North {deg}
  0,                                      !- X Origin {m}
  0,                                      !- Y Origin {m}
  0,                                      !- Z Origin {m}
  {9b117224-0a76-48dd-ae52-1f68b943c809}, !- Building Story Name
  {1a4b4420-c222-4a05-a25c-e7a3fd2530bf}; !- Thermal Zone Name

OS:Space,
  {ec8a5c3e-1662-4198-9d3e-17241f62148d}, !- Handle
  "NW Perim Spc (M.NW40)",                !- Name