
OS:Version,
  {b7556482-79de-418f-b609-6691ec913840}, !- Handle
  1.8.5;                                  !- Version Identifier

OS:Site,
  {c3c301d2-dcad-4c60-b29c-d9477fd60bc3}, !- Handle
  USA IL-CHICAGO-OHARE,                   !- Name
  41.77,                                  !- Latitude {deg}
  -87.75,                                 !- Longitude {deg}
  -6,                                     !- Time Zone {hr}
  190,                                    !- Elevation {m}
  City;                                   !- Terrain

OS:SimulationControl,
  {4c827941-db45-41f3-ae50-bfb2f6daa1d3}, !- Handle
  Yes,                                    !- Do Zone Sizing Calculation
  Yes,                                    !- Do System Sizing Calculation
  Yes,                                    !- Do Plant Sizing Calculation
  No,                                     !- Run Simulation for Sizing Periods
  Yes,                                    !- Run Simulation for Weather File Run Periods
  0.04,                                   !- Loads Convergence Tolerance Value
  0.2,                                    !- Temperature Convergence Tolerance Value {deltaC}
  FullInteriorAndExterior,                !- Solar Distribution
  25,                                     !- Maximum Number of Warmup Days
  6;                                      !- Minimum Number of Warmup Days

OS:Material,
  {1ef73a65-0dc0-4c59-a2f7-62ff2eca6787}, !- Handle
  Roof Membrane,                          !- Name
  VeryRough,                              !- Roughness
  0.0095,                                 !- Thickness {m}
  0.16,                                   !- Conductivity {W/m-K}
  1121.29,                                !- Density {kg/m3}
  1460,                                   !- Specific Heat {J/kg-K}
  0.9,                                    !- Thermal Absorptance
  0.7,                                    !- Solar Absorptance
  0.7;                                    !- Visible Absorptance

OS:Space,
  {e5d9f98f-4bf9-4437-a44c-56192742597a}, !- Handle
  Kitchen,                                !- Name
  {ce58dac9-2206-43c9-95dc-daa1aa7276a9}, !- Space Type Name
  ,                                       !- Default Construction Set Name
  ,                                       !- Default Schedule Set Name
  0,                                      !- Direction of Relative North {deg}
  0,                                      !- X Origin {m}
  0,                                      !- Y Origin {m}
  0,                                      !- Z Origin {m}
  {a4b8675a-12c6-4414-955f-c53c63f22611}, !- Building Story Name
  {58a0ece7-3bf6-4dc5-81a2-3b9a5b1ed0ee}, !- Thermal Zone Name
  Yes,                                    !- Part of Total Floor Area
  {35c57176-9cd8-43ae-8ea4-ac4ebe2018de}; !- Design Specification Outdoor Air Object Name

OS:Schedule:Compact,
  {ae377552-2490-4868-be63-83caf7392ded}, !- Handle
  HTGSETP_KITCHEN_SCH,                    !- Name
  {750ee87a-b62a-4241-831f-0f420137d815}, !- Schedule Type Limits Name
  Through: 12/31,                         !- Field 1
  For: SummerDesignDay,                   !- Field 2
  Until: 24:00,                           !- Field 3
  15.6,                                   !- Field 4
  For: WinterDesignDay,                   !- Field 5
  Until: 24:00,                           !- Field 6
  19,                                     !- Field 7
  For: AllOtherDays,                      !- Field 8
  Until: 01:00,                           !- Field 9
  19,                                     !- Field 10
  Until: 05:00,                           !- Field 11
  15.6,                                   !- Field 12
  Until: 24:00,                           !- Field 13
  19;                                     !- Field 14

OS:ScheduleTypeLimits,
  {750ee87a-b62a-4241-831f-0f420137d815}, !- Handle
  Temperature,                            !- Name
  -60,                                    !- Lower Limit Value {BasedOnField A4}
  200,                                    !- Upper Limit Value {BasedOnField A4}
  CONTINUOUS,                             !- Numeric Type
  Temperature;                            !- Unit Type

OS:Schedule:Compact,
  {7f4f3017-3e09-4854-8bba-41262c6d4c98}, !- Handle
  CLGSETP_KITCHEN_SCH,                    !- Name
  {750ee87a-b62a-4241-831f-0f420137d815}, !- Schedule Type Limits Name
  Through: 12/31,                         !- Field 1
  For: WinterDesignDay,                   !- Field 2
  Until: 24:00,                           !- Field 3
  30,                                     !- Field 4
  For: AllOtherDays,                      !- Field 5
  Until: 01:00,                           !- Field 6
  26,                                     !- Field 7
  Until: 05:00,                           !- Field 8
  30,                                     !- Field 9
  Until: 24:00,                           !- Field 10
  26;                                     !- Field 11

OS:Surface,
  {d41c3541-8ad0-4e5e-8656-40ffe23f9c31}, !- Handle
  Dining_Wall_East,                       !- Name
  Wall,                                   !- Surface Type
  {6efa7c90-a2a2-4ec7-bff9-fd0d8f6b0632}, !- Construction Name
  {8ac1871e-e69b-4749-98e7-1807ce41b97b}, !- Space Name
  Outdoors,                               !- Outside Boundary Condition
  ,                                       !- Outside Boundary Condition Object
  SunExposed,                             !- Sun Exposure
  WindExposed,                            !- Wind Exposure
  ,                                       !- View Factor to Ground
  ,                                       !- Number of Vertices
  22.6087, 0, 3.0488,                     !- X,Y,Z Vertex 1 {m}
  22.6087, 0, 0,                          !- X,Y,Z Vertex 2 {m}
  22.6087, 16.4427, 0,                    !- X,Y,Z Vertex 3 {m}
  22.6087, 16.4427, 3.0488;               !- X,Y,Z Vertex 4 {m}

OS:Construction,
  {6efa7c90-a2a2-4ec7-bff9-fd0d8f6b0632}, !- Handle
  Steel Frame Non-res Ext Wall,           !- Name
  {f6ce3a8d-e115-4101-9ab4-db1cea9a4565}, !- Surface Rendering Name
  {9baa96c3-f085-41cb-9bdd-d31001db5204}, !- Layer 1
  {3373181d-bed5-4adf-9178-2c02dcc860f8}, !- Layer 2
  {5ae1a0a1-4119-4c16-859c-8351bea841d2}; !- Layer 3

OS:Material,
  {9baa96c3-f085-41cb-9bdd-d31001db5204}, !- Handle
  Wood Siding,                            !- Name
  MediumSmooth,                           !- Roughness
  0.01,                                   !- Thickness {m}
  0.11,                                   !- Conductivity {W/m-K}
  544.62,                                 !- Density {kg/m3}
  1210,                                   !- Specific Heat {J/kg-K}
  0.9,                                    !- Thermal Absorptance
  0.78,                                   !- Solar Absorptance
  0.78;                                   !- Visible Absorptance

OS:Material,
  {3373181d-bed5-4adf-9178-2c02dcc860f8}, !- Handle
  Steel Frame NonRes Wall Insulation,     !- Name
  MediumRough,                            !- Roughness
  0.0870564552646045,                     !- Thickness {m}
  0.049,                                  !- Conductivity {W/m-K}
  265,                                    !- Density {kg/m3}
  836.8,                                  !- Specific Heat {J/kg-K}
  0.9,                                    !- Thermal Absorptance
  0.7,                                    !- Solar Absorptance
  0.7;                                    !- Visible Absorptance

OS:Material,
  {5ae1a0a1-4119-4c16-859c-8351bea841d2}, !- Handle
  1/2IN Gypsum,                           !- Name
  Smooth,                                 !- Roughness
  0.0127,                                 !- Thickness {m}
  0.16,                                   !- Conductivity {W/m-K}
  784.9,                                  !- Density {kg/m3}
  830,                                    !- Specific Heat {J/kg-K}
  0.9,                                    !- Thermal Absorptance
  0.92,                                   !- Solar Absorptance
  0.92;                                   !- Visible Absorptance

OS:Space,
  {8ac1871e-e69b-4749-98e7-1807ce41b97b}, !- Handle
  Dining,                                 !- Name
  {b469e4cc-5220-4262-bdc6-4da5defb17b0}, !- Space Type Name
  ,                                       !- Default Construction Set Name
  ,                                       !- Default Schedule Set Name
  0,                                      !- Direction of Relative North {deg}
  0,                                      !- X Origin {m}
  0,                                      !- Y Origin {m}
  0,                                      !- Z Origin {m}
  {a4b8675a-12c6-4414-955f-c53c63f22611}, !- Building Story Name
  {4b3fe91c-a3f4-4829-a392-fe9ff490f838}, !- Thermal Zone Name
  Yes,                                    !- Part of Total Floor Area
  {79fd6078-b144-4678-a238-bcd5ea7a783c}; !- Design Specification Outdoor Air Object Name

OS:Schedule:Compact,
  {1aeeaff9-f281-442c-8463-8553a447b836}, !- Handle
  HTGSETP_SCH,                            !- Name
  {750ee87a-b62a-4241-831f-0f420137d815}, !- Schedule Type Limits Name
  Through: 12/31,                         !- Field 1
  For: SummerDesignDay,                   !- Field 2
  Until: 24:00,                           !- Field 3
  15.6,                                   !- Field 4
  For: WinterDesignDay,                   !- Field 5
  Until: 24:00,                           !- Field 6
  21,                                     !- Field 7
  For: AllOtherDays,                      !- Field 8
  Until: 01:00,                           !- Field 9
  21,                                     !- Field 10
  Until: 05:00,                           !- Field 11
  15.6,                                   !- Field 12
  Until: 24:00,                           !- Field 13
  21;                                     !- Field 14

OS:Schedule:Compact,
  {9e70cd0b-8cbe-4edc-bd0d-453e48bf1d21}, !- Handle
  CLGSETP_SCH,                            !- Name
  {750ee87a-b62a-4241-831f-0f420137d815}, !- Schedule Type Limits Name
  Through: 12/31,                         !- Field 1
  For: WinterDesignDay,                   !- Field 2
  Until: 24:00,                           !- Field 3
  30,                                     !- Field 4
  For: AllOtherDays,                      !- Field 5
  Until: 01:00,                           !- Field 6
  24,                                     !- Field 7
  Until: 05:00,                           !- Field 8
  30,                                     !- Field 9
  Until: 24:00,                           !- Field 10
  24;                                     !- Field 11

OS:Curve:Biquadratic,
  {300443f2-bce9-45a1-96e3-1f31ceaf4c00}, !- Handle
  Cool-Cap-fT,                            !- Name
  0.9712123,                              !- Coefficient1 Constant
  -0.015275502,                           !- Coefficient2 x
  0.0014434524,                           !- Coefficient3 x**2
  -0.00039321,                            !- Coefficient4 y
  -6.8364e-006,                           !- Coefficient5 y**2
  -0.0002905956,                          !- Coefficient6 x*y
  -100,                                   !- Minimum Value of x {BasedOnField A2}
  100,                                    !- Maximum Value of x {BasedOnField A2}
  -100,                                   !- Minimum Value of y {BasedOnField A3}
  100;                                    !- Maximum Value of y {BasedOnField A3}

OS:Schedule:Compact,
  {924fbb5f-731b-4d2b-acb3-761286d1d928}, !- Handle
  HVACOperationSchd,                      !- Name
  {418f09b7-6906-4768-9a1f-4934a1cf9172}, !- Schedule Type Limits Name
  Through: 12/31,                         !- Field 1
  For: AllDays,                           !- Field 2
  Until: 01:00,                           !- Field 3
  1.0,                                    !- Field 4
  Until: 05:00,                           !- Field 5
  0.0,                                    !- Field 6
  Until: 24:00,                           !- Field 7
  1.0;                                    !- Field 8

OS:ScheduleTypeLimits,
  {418f09b7-6906-4768-9a1f-4934a1cf9172}, !- Handle
  On/Off,                                 !- Name
  0,                                      !- Lower Limit Value {BasedOnField A4}
  1,                                      !- Upper Limit Value {BasedOnField A4}
  DISCRETE,                               !- Numeric Type
  Availability;                           !- Unit Type

OS:InternalMass:Definition,
  {ab02b8db-b47b-4db3-bc33-b94eef96299c}, !- Handle
  Dining Internal Mass Definition,        !- Name
  {9f99549f-6f18-4a6b-9a98-ff73ed915c9e}, !- Construction Name
  SurfaceArea,                            !- Design Level Calculation Method
  743.4961,                               !- Surface Area {m2}
  ,                                       !- Surface Area per Space Floor Area {dimensionless}
  ;                                       !- Surface Area per Person {m2/person}

OS:Construction,
  {9f99549f-6f18-4a6b-9a98-ff73ed915c9e}, !- Handle
  InteriorFurnishings,                    !- Name
  {ce03a741-1814-458f-b4d3-e20b3e1f3284}, !- Surface Rendering Name
  {2f971841-0e4b-4ad4-9cbc-0ea33bfe82c7}; !- Layer 1

OS:Material,
  {2f971841-0e4b-4ad4-9cbc-0ea33bfe82c7}, !- Handle
  Std Wood 6inch,                         !- Name
  MediumSmooth,                           !- Roughness
  0.15,                                   !- Thickness {m}
  0.12,                                   !- Conductivity {W/m-K}
  540,                                    !- Density {kg/m3}
  1210,                                   !- Specific Heat {J/kg-K}
  0.9,                                    !- Thermal Absorptance
  0.7,                                    !- Solar Absorptance
  0.7;                                    !- Visible Absorptance

OS:InternalMass,
  {2174f6d1-3456-41cb-9c6e-e849bfc9537f}, !- Handle
  Dining Internal Mass,                   !- Name
  {ab02b8db-b47b-4db3-bc33-b94eef96299c}, !- Internal Mass Definition Name
  {8ac1871e-e69b-4749-98e7-1807ce41b97b}; !- Space or SpaceType Name

OS:Lights:Definition,
  {920fb30a-5eab-41a8-8a05-65bc6d8228c2}, !- Handle
  Kitchen_Lights Definition,              !- Name
  Watts/Area,                             !- Design Level Calculation Method
  ,                                       !- Lighting Level {W}
  12.9,                                   !- Watts per Space Floor Area {W/m2}
  ,                                       !- Watts per Person {W/person}
  0.7,                                    !- Fraction Radiant
  0.2,                                    !- Fraction Visible
  0,                                      !- Return Air Fraction
  No;                                     !- Return Air Fraction Calculated from Plenum Temperature

OS:Lights,
  {27f78486-516a-4dc0-a789-485713abcc3b}, !- Handle
  Kitchen_Lights,                         !- Name
  {920fb30a-5eab-41a8-8a05-65bc6d8228c2}, !- Lights Definition Name
  {e5d9f98f-4bf9-4437-a44c-56192742597a}, !- Space or SpaceType Name
  {a7a4f883-217b-4e5a-b49f-4365e6ce97fd}, !- Schedule Name
  1,                                      !- Fraction Replaceable
  ,                                       !- Multiplier
  General;                                !- End-Use Subcategory

OS:Schedule:Compact,
  {a7a4f883-217b-4e5a-b49f-4365e6ce97fd}, !- Handle
  BLDG_LIGHT_SCH,                         !- Name
  {e170c8ce-3590-4798-89fa-dfdbf059b151}, !- Schedule Type Limits Name
  Through: 12/31,                         !- Field 1
  For: SummerDesignDay,                   !- Field 2
  Until: 24:00,                           !- Field 3
  1.0,                                    !- Field 4
  For: WinterDesignDay,                   !- Field 5
  Until: 24:00,                           !- Field 6
  0.0,                                    !- Field 7
  For: Weekday Saturday Sunday Holidays AllOtherDays, !- Field 8
  Until: 01:00,                           !- Field 9
  0.45,                                   !- Field 10
  Until: 05:00,                           !- Field 11
  0.15,                                   !- Field 12
  Until: 06:00,                           !- Field 13
  0.45,                                   !- Field 14
  Until: 24:00,                           !- Field 15
  0.90;                                   !- Field 16

OS:ScheduleTypeLimits,
  {e170c8ce-3590-4798-89fa-dfdbf059b151}, !- Handle
  Fraction,                               !- Name
  0,                                      !- Lower Limit Value {BasedOnField A4}
  1,                                      !- Upper Limit Value {BasedOnField A4}
  CONTINUOUS;                             !- Numeric Type

OS:Construction,
  {85d751a0-0211-4e81-8b77-adbbb5cf3bfb}, !- Handle
  Attic Non-res Floor,                    !- Name
  {490ed8fd-30c9-4dfd-a78c-fc4d14e66254}, !- Surface Rendering Name
  {5ae1a0a1-4119-4c16-859c-8351bea841d2}, !- Layer 1
  {9867677f-44c2-4df6-af98-1ead27c6ad53}, !- Layer 2
  {5ae1a0a1-4119-4c16-859c-8351bea841d2}; !- Layer 3

OS:Material,
  {9867677f-44c2-4df6-af98-1ead27c6ad53}, !- Handle
  AtticFloor NonRes Insulation,           !- Name
  MediumRough,                            !- Roughness
  0.236804989096202,                      !- Thickness {m}
  0.049,                                  !- Conductivity {W/m-K}
  265,                                    !- Density {kg/m3}
  836.8,                                  !- Specific Heat {J/kg-K}
  0.9,                                    !- Thermal Absorptance
  0.7,                                    !- Solar Absorptance
  0.7;                                    !- Visible Absorptance

OS:Lights:Definition,
  {25271a02-5202-47cd-810a-b119575c366e}, !- Handle
  Dining_Lights Definition,               !- Name
  Watts/Area,                             !- Design Level Calculation Method
  ,                                       !- Lighting Level {W}
  22.6,                                   !- Watts per Space Floor Area {W/m2}
  ,                                       !- Watts per Person {W/person}
  0.7,                                    !- Fraction Radiant
  0.2,                                    !- Fraction Visible
  0,                                      !- Return Air Fraction
  No;                                     !- Return Air Fraction Calculated from Plenum Temperature

OS:Lights,
  {6b1e551d-3aec-44c7-8526-0bcbfa97f565}, !- Handle
  Dining_Lights,                          !- Name
  {25271a02-5202-47cd-810a-b119575c366e}, !- Lights Definition Name
  {8ac1871e-e69b-4749-98e7-1807ce41b97b}, !- Space or SpaceType Name
  {a7a4f883-217b-4e5a-b49f-4365e6ce97fd}, !- Schedule Name
  1,                                      !- Fraction Replaceable
  ,                                       !- Multiplier
  General;                                !- End-Use Subcategory

OS:DesignSpecification:OutdoorAir,
  {35c57176-9cd8-43ae-8ea4-ac4ebe2018de}, !- Handle
  SZ DSOA Kitchen,                        !- Name
  ,                                       !- Outdoor Air Method
  0.008,                                  !- Outdoor Air Flow per Person {m3/s-person}
  ,                                       !- Outdoor Air Flow per Floor Area {m3/s-m2}
  ,                                       !- Outdoor Air Flow Rate {m3/s}
  ,                                       !- Outdoor Air Flow Air Changes per Hour {1/hr}
  ;                                       !- Outdoor Air Flow Rate Fraction Schedule Name

OS:Meter,
  {53b1e973-5458-470c-9c8e-a69c42a3de06}, !- Handle
  Heating:Gas,                            !- Name
  hourly,                                 !- Reporting Frequency
  False,                                  !- Meter File Only
  False;                                  !- Cumulative

OS:Schedule:Compact,
  {362403fc-ea80-4883-a7d5-2f468339dde9}, !- Handle
  WORK_EFF_SCH,                           !- Name
  {e170c8ce-3590-4798-89fa-dfdbf059b151}, !- Schedule Type Limits Name
  Through: 12/31,                         !- Field 1
  For: AllDays,                           !- Field 2
  Until: 24:00,                           !- Field 3
  0.0;                                    !- Field 4

OS:DesignSpecification:OutdoorAir,
  {79fd6078-b144-4678-a238-bcd5ea7a783c}, !- Handle
  SZ DSOA Dining,                         !- Name
  ,                                       !- Outdoor Air Method
  0.01,                                   !- Outdoor Air Flow per Person {m3/s-person}
  ,                                       !- Outdoor Air Flow per Floor Area {m3/s-m2}
  ,                                       !- Outdoor Air Flow Rate {m3/s}
  ,                                       !- Outdoor Air Flow Air Changes per Hour {1/hr}
  ;                                       !- Outdoor Air Flow Rate Fraction Schedule Name

OS:Schedule:Compact,
  {dd38f292-fb89-430a-96d2-80944a3a641c}, !- Handle
  CLOTHING_SCH,                           !- Name
  ,                                       !- Schedule Type Limits Name
  Through: 04/30,                         !- Field 1
  For: AllDays,                           !- Field 2
  Until: 24:00,                           !- Field 3
  1.0,                                    !- Field 4
  Through: 09/30,                         !- Field 5
  For: AllDays,                           !- Field 6
  Until: 24:00,                           !- Field 7
  0.5,                                    !- Field 8
  Through: 12/31,                         !- Field 9
  For: AllDays,                           !- Field 10
  Until: 24:00,                           !- Field 11
  1.0;                                    !- Field 12

OS:ScheduleTypeLimits,
  {186a47f7-06ea-4508-b228-38dc3abb80b0}, !- Handle
  {239d1b01-2085-485a-b43d-a0b8521c2d44}; !- Name

OS:Curve:Biquadratic,
  {8aca2a68-9ab6-428c-880b-168c5ee8dae9}, !- Handle
  Cool-EIR-fT,                            !- Name
  0.28687133,                             !- Coefficient1 Constant
  0.023902164,                            !- Coefficient2 x
  -0.000810648,                           !- Coefficient3 x**2
  0.013458546,                            !- Coefficient4 y
  0.0003389364,                           !- Coefficient5 y**2
  -0.0004870044,                          !- Coefficient6 x*y
  -100,                                   !- Minimum Value of x {BasedOnField A2}
  100,                                    !- Maximum Value of x {BasedOnField A2}
  -100,                                   !- Minimum Value of y {BasedOnField A3}
  100;                                    !- Maximum Value of y {BasedOnField A3}

OS:Construction,
  {b8b0bcbe-ee12-4984-9933-e42898126df7}, !- Handle
  DropCeiling,                            !- Name
  {49f7c54e-65fc-4f94-b6e9-06e23ef21a16}, !- Surface Rendering Name
  {63d67e50-0c07-4f0f-879c-6dfd74718edc}; !- Layer 1

OS:Material,
  {63d67e50-0c07-4f0f-879c-6dfd74718edc}, !- Handle
  Std AC02,                               !- Name
  MediumSmooth,                           !- Roughness
  0.0127,                                 !- Thickness {m}
  0.057,                                  !- Conductivity {W/m-K}
  288,                                    !- Density {kg/m3}
  1339,                                   !- Specific Heat {J/kg-K}
  0.9,                                    !- Thermal Absorptance
  0.7,                                    !- Solar Absorptance
  0.2;                                    !- Visible Absorptance

OS:Timestep,
  {d4627a95-8d05-499b-8aab-554f380c67fd}, !- Handle
  4;                                      !- Number of Timesteps per Hour

OS:Material,
  {45908cd7-1793-4393-a5aa-a54dd1f0d3dc}, !- Handle
  Metal Siding,                           !- Name
  Smooth,                                 !- Roughness
  0.0015,                                 !- Thickness {m}
  44.96,                                  !- Conductivity {W/m-K}
  7688.86,                                !- Density {kg/m3}
  410,                                    !- Specific Heat {J/kg-K}
  0.9,                                    !- Thermal Absorptance
  0.2,                                    !- Solar Absorptance
  0.2;                                    !- Visible Absorptance

OS:Surface,
  {f2c35dd5-a757-45cd-a2fb-4ed85a36b5df}, !- Handle
  east-roof,                              !- Name
  RoofCeiling,                            !- Surface Type
  {1b827537-8941-44f2-940d-f7bf7812f402}, !- Construction Name
  {7795c257-b3c7-4803-ae09-2c4524919d1b}, !- Space Name
  Outdoors,                               !- Outside Boundary Condition
  ,                                       !- Outside Boundary Condition Object
  SunExposed,                             !- Sun Exposure
  WindExposed,                            !- Wind Exposure
  ,                                       !- View Factor to Ground
  ,                                       !- Number of Vertices
  11.3044, 3.769, 3.7692,                 !- X,Y,Z Vertex 1 {m}
  22.6087, 0, 0,                          !- X,Y,Z Vertex 2 {m}
  22.6087, 22.6087, 0,                    !- X,Y,Z Vertex 3 {m}
  11.3044, 18.8397, 3.7692;               !- X,Y,Z Vertex 4 {m}

OS:Construction,
  {1b827537-8941-44f2-940d-f7bf7812f402}, !- Handle
  Attic Non-res Roof,                     !- Name
  {85acae3c-01cd-40cb-9b41-3b3ac9f412ad}, !- Surface Rendering Name
  {1ef73a65-0dc0-4c59-a2f7-62ff2eca6787}, !- Layer 1
  {d1453b51-4f2e-4e71-b2da-1fd7f981247e}; !- Layer 2

OS:Material,
  {d1453b51-4f2e-4e71-b2da-1fd7f981247e}, !- Handle
  Metal Decking,                          !- Name
  MediumSmooth,                           !- Roughness
  0.0015,                                 !- Thickness {m}
  45.006,                                 !- Conductivity {W/m-K}
  7680,                                   !- Density {kg/m3}
  418.4,                                  !- Specific Heat {J/kg-K}
  0.9,                                    !- Thermal Absorptance
  0.7,                                    !- Solar Absorptance
  0.3;                                    !- Visible Absorptance

OS:Space,
  {7795c257-b3c7-4803-ae09-2c4524919d1b}, !- Handle
  attic,                                  !- Name
  {0abdf9a7-051d-4c46-8ae8-d13652a09f00}, !- Space Type Name
  ,                                       !- Default Construction Set Name
  ,                                       !- Default Schedule Set Name
  0,                                      !- Direction of Relative North {deg}
  0,                                      !- X Origin {m}
  0,                                      !- Y Origin {m}
  3.0488,                                 !- Z Origin {m}
  {c796ce21-80a1-4b63-bbca-e8d10fab6eed}, !- Building Story Name
  ,                                       !- Thermal Zone Name
  No;                                     !- Part of Total Floor Area

OS:Construction,
  {2d26e921-094f-477d-9203-e45a5552ad7a}, !- Handle
  int-walls,                              !- Name
  {28b3b54e-2fca-48d0-af3f-1ce39d8883b3}, !- Surface Rendering Name
  {5ae1a0a1-4119-4c16-859c-8351bea841d2}, !- Layer 1
  {5ae1a0a1-4119-4c16-859c-8351bea841d2}; !- Layer 2

OS:Surface,
  {95affc08-5b03-48b8-bf91-ef0acd728fe5}, !- Handle
  west-roof,                              !- Name
  RoofCeiling,                            !- Surface Type
  {1b827537-8941-44f2-940d-f7bf7812f402}, !- Construction Name
  {7795c257-b3c7-4803-ae09-2c4524919d1b}, !- Space Name
  Outdoors,                               !- Outside Boundary Condition
  ,                                       !- Outside Boundary Condition Object
  SunExposed,                             !- Sun Exposure
  WindExposed,                            !- Wind Exposure
  ,                                       !- View Factor to Ground
  ,                                       !- Number of Vertices
  11.3044, 18.8397, 3.7692,               !- X,Y,Z Vertex 1 {m}
  -1.57308521999447e-016, 22.6087, 4.71792013183315e-016, !- X,Y,Z Vertex 2 {m}
  -1.1417329679585e-016, -2.17720723655857e-033, 3.42422958797359e-016, !- X,Y,Z Vertex 3 {m}
  11.3044, 3.769, 3.7692;                 !- X,Y,Z Vertex 4 {m}

OS:Surface,
  {75b88b8b-09fc-4acd-a4c3-8712059a2b06}, !- Handle
  south-roof,                             !- Name
  RoofCeiling,                            !- Surface Type
  {1b827537-8941-44f2-940d-f7bf7812f402}, !- Construction Name
  {7795c257-b3c7-4803-ae09-2c4524919d1b}, !- Space Name
  Outdoors,                               !- Outside Boundary Condition
  ,                                       !- Outside Boundary Condition Object
  SunExposed,                             !- Sun Exposure
  WindExposed,                            !- Wind Exposure
  ,                                       !- View Factor to Ground
  ,                                       !- Number of Vertices
  11.3044, 3.769, 3.7692,                 !- X,Y,Z Vertex 1 {m}
  -1.73917179908584e-034, -6.74580236774689e-017, 6.7454444242911e-017, !- X,Y,Z Vertex 2 {m}
  22.6087, -9.66039263974126e-017, 9.65988004329428e-017; !- X,Y,Z Vertex 3 {m}

OS:SizingPeriod:DesignDay,
  {b733a829-3a1c-4e19-a320-8ce4a7fa0291}, !- Handle
  CHICAGO Ann Clg .4% Condns WB=>MDB,     !- Name
  31.2,                                   !- Maximum Dry-Bulb Temperature {C}
  10.7,                                   !- Daily Dry-Bulb Temperature Range {deltaC}
  25.5,                                   !- Humidity Indicating Conditions at Maximum Dry-Bulb {BasedOnField A3}
  99063,                                  !- Barometric Pressure {Pa}
  5.3,                                    !- Wind Speed {m/s}
  230,                                    !- Wind Direction {deg}
  1,                                      !- Sky Clearness
  0,                                      !- Rain Indicator
  0,                                      !- Snow Indicator