
OS:Version,
  {4f99f7d3-c2e6-48e9-9995-6fb302583437}, !- Handle
  1.8.5;                                  !- Version Identifier

OS:Site,
  {c17038ab-e146-4e02-a509-02b4a35380a5}, !- Handle
  USA IL-CHICAGO-OHARE,                   !- Name
  41.77,                                  !- Latitude {deg}
  -87.75,                                 !- Longitude {deg}
  -6,                                     !- Time Zone {hr}
  190,                                    !- Elevation {m}
  City;                                   !- Terrain

OS:SimulationControl,
  {0809debb-de1c-4b42-a32e-26abc1892e6e}, !- Handle
  Yes,                                    !- Do Zone Sizing Calculation
  Yes,                                    !- Do System Sizing Calculation
  Yes,                                    !- Do Plant Sizing Calculation
  No,                                     !- Run Simulation for Sizing Periods
  Yes,                                    !- Run Simulation for Weather File Run Periods
  0.04,                                   !- Loads Convergence Tolerance Value
  0.2,                                    !- Temperature Convergence Tolerance Value {deltaC}
  FullInteriorAndExterior,                !- Solar Distribution
  25,                                     !- Maximum Number of Warmup Days
  6;                                      !- Minimum Number of Warmup Days

OS:Schedule:Compact,
  {2c932652-0977-4488-98bc-fd9a3c1770bb}, !- Handle
  Kitchen Water Equipment Temp Sched,     !- Name
  {a04ddb08-c81d-4c0f-99a2-8e737a8e7823}, !- Schedule Type Limits Name
  Through: 12/31,                         !- Field 1
  For: AllDays,                           !- Field 2
  Until: 24:00,                           !- Field 3
  49;                                     !- Field 4

OS:ScheduleTypeLimits,
  {a04ddb08-c81d-4c0f-99a2-8e737a8e7823}, !- Handle
  Temperature,                            !- Name
  -60,                                    !- Lower Limit Value {BasedOnField A4}
  200,                                    !- Upper Limit Value {BasedOnField A4}
  CONTINUOUS,                             !- Numeric Type
  Temperature;                            !- Unit Type

OS:SizingPeriod:DesignDay,
  {4c2d413c-324b-4e4c-8130-2043829f7b8e}, !- Handle
  CHICAGO Ann Clg .4% Condns WB=>MDB,     !- Name
  31.2,                                   !- Maximum Dry-Bulb Temperature {C}
  10.7,                                   !- Daily Dry-Bulb Temperature Range {deltaC}
  25.5,                                   !- Humidity Indicating Conditions at Maximum Dry-Bulb {BasedOnField A3}
  99063,                                  !- Barometric Pressure {Pa}
  5.3,                                    !- Wind Speed {m/s}
  230,                                    !- Wind Direction {deg}
  1,                                      !- Sky Clearness
  0,                                      !- Rain Indicator
  0,                                      !- Snow Indicator
  21,                                     !- Day of Month
  7,                                      !- Month
  SummerDesignDay,                        !- Day Type
  0,                                      !- Daylight Saving Time Indicator
  Wetbulb,                                !- Humidity Indicating Type
  ,                                       !- Humidity Indicating Day Schedule Name
  ,                                       !- Dry-Bulb Temperature Range Modifier Type
  ,                                       !- Dry-Bulb Temperature Range Modifier Schedule Name
  ASHRAEClearSky;                         !- Solar Model Indicator

OS:Material:NoMass,
  {b83699a9-d5fd-4bc1-927a-fa560bfab837}, !- Handle
  MAT-AIR-WALL,                           !- Name
  Rough,                                  !- Roughness
  0.2079491,                              !- Thermal Resistance {m2-K/W}
  0.9,                                    !- Thermal Absorptance
  0.7;                                    !- Solar Absorptance

OS:GasEquipment:Definition,
  {9f31fe80-7bac-40b6-b6e3-e8f5ee0cfc24}, !- Handle
  Kitchen_MiscGas_Equip Definition,       !- Name
  EquipmentLevel,                         !- Design Level Calculation Method
  166994,                                 !- Design Level {W}
  ,                                       !- Watts per Space Floor Area {W/m2}
  ,                                       !- Watts per Person {W/Person}
  0.1,                                    !- Fraction Latent
  0.2,                                    !- Fraction Radiant
  0.7;                                    !- Fraction Lost

OS:GasEquipment,
  {942e5d94-3504-4620-9c12-65be73b8548f}, !- Handle
  Kitchen_MiscGas_Equip,                  !- Name
  {9f31fe80-7bac-40b6-b6e3-e8f5ee0cfc24}, !- Gas Equipment Definition Name
  {15d1d9d9-c0f6-462e-a682-741bbc82e002}, !- Space or SpaceType Name
  {a6436188-7e33-4f1e-abe8-2818e085a9eb}, !- Schedule Name
  ,                                       !- Multiplier
  MiscGas;                                !- End-Use Subcategory

OS:Space,
  {15d1d9d9-c0f6-462e-a682-741bbc82e002}, !- Handle
  Kitchen,                                !- Name
  {cfa0fcb7-e184-4c9c-9241-65c68947bc2f}, !- Space Type Name
  ,                                       !- Default Construction Set Name
  ,                                       !- Default Schedule Set Name
  0,                                      !- Direction of Relative North {deg}
  0,                                      !- X Origin {m}
  0,                                      !- Y Origin {m}
  0,                                      !- Z Origin {m}
  {ad39c6f8-10e1-48bc-bca5-bd8022ca4921}, !- Building Story Name
  {882d6bff-7b52-47b6-9622-724c5815ba66}, !- Thermal Zone Name
  Yes,                                    !- Part of Total Floor Area
  {dde44337-4037-49be-84c4-8ddf3792c8f7}; !- Design Specification Outdoor Air Object Name

OS:Schedule:Compact,
  {c30c5cc8-e79e-49e7-bda8-51374981b0a5}, !- Handle
  HTGSETP_KITCHEN_SCH,                    !- Name
  {a04ddb08-c81d-4c0f-99a2-8e737a8e7823}, !- Schedule Type Limits Name
  Through: 12/31,                         !- Field 1
  For: SummerDesignDay,                   !- Field 2
  Until: 24:00,                           !- Field 3
  15.6,                                   !- Field 4
  For: WinterDesignDay,                   !- Field 5
  Until: 24:00,                           !- Field 6
  19,                                     !- Field 7
  For: AllOtherDays,                      !- Field 8
  Until: 01:00,                           !- Field 9
  19,                                     !- Field 10
  Until: 05:00,                           !- Field 11
  15.6,                                   !- Field 12
  Until: 24:00,                           !- Field 13
  19;                                     !- Field 14

OS:Schedule:Compact,
  {424c506a-9d63-42cd-a9f3-ff76f064ee8b}, !- Handle
  CLGSETP_KITCHEN_SCH,                    !- Name
  {a04ddb08-c81d-4c0f-99a2-8e737a8e7823}, !- Schedule Type Limits Name
  Through: 12/31,                         !- Field 1
  For: WinterDesignDay,                   !- Field 2
  Until: 24:00,                           !- Field 3
  30,                                     !- Field 4
  For: AllOtherDays,                      !- Field 5
  Until: 01:00,                           !- Field 6
  26,                                     !- Field 7
  Until: 05:00,                           !- Field 8
  30,                                     !- Field 9
  Until: 24:00,                           !- Field 10
  26;                                     !- Field 11

OS:Schedule:Compact,
  {a6436188-7e33-4f1e-abe8-2818e085a9eb}, !- Handle
  GAS_EQUIP_SCH,                          !- Name
  {66dcb8fd-5891-4fc7-a77f-f18799bd99cc}, !- Schedule Type Limits Name
  Through: 12/31,                         !- Field 1
  For: Weekdays Saturday,                 !- Field 2
  Until: 05:00,                           !- Field 3
  0.02,                                   !- Field 4
  Until: 06:00,                           !- Field 5
  0.05,                                   !- Field 6
  Until: 07:00,                           !- Field 7
  0.1,                                    !- Field 8
  Until: 08:00,                           !- Field 9
  0.15,                                   !- Field 10
  Until: 09:00,                           !- Field 11
  0.2,                                    !- Field 12
  Until: 10:00,                           !- Field 13
  0.15,                                   !- Field 14
  Until: 13:00,                           !- Field 15
  0.25,                                   !- Field 16
  Until: 14:00,                           !- Field 17
  0.2,                                    !- Field 18
  Until: 15:00,                           !- Field 19
  0.15,                                   !- Field 20
  Until: 16:00,                           !- Field 21
  0.2,                                    !- Field 22
  Until: 19:00,                           !- Field 23
  0.3,                                    !- Field 24
  Until: 21:00,                           !- Field 25
  0.20,                                   !- Field 26
  Until: 22:00,                           !- Field 27
  0.15,                                   !- Field 28
  Until: 23:00,                           !- Field 29
  0.10,                                   !- Field 30
  Until: 24:00,                           !- Field 31
  0.05,                                   !- Field 32
  For: SummerDesignDay,                   !- Field 33
  Until: 24:00,                           !- Field 34
  0.25,                                   !- Field 35
  For: WinterDesignDay,                   !- Field 36
  Until: 24:00,                           !- Field 37
  0.0,                                    !- Field 38
  For: Sunday Holidays AllOtherDays,      !- Field 39
  Until: 05:00,                           !- Field 40
  0.02,                                   !- Field 41
  Until: 06:00,                           !- Field 42
  0.05,                                   !- Field 43
  Until: 07:00,                           !- Field 44
  0.1,                                    !- Field 45
  Until: 08:00,                           !- Field 46
  0.15,                                   !- Field 47
  Until: 09:00,                           !- Field 48
  0.2,                                    !- Field 49
  Until: 10:00,                           !- Field 50
  0.15,                                   !- Field 51
  Until: 13:00,                           !- Field 52
  0.25,                                   !- Field 53
  Until: 14:00,                           !- Field 54
  0.2,                                    !- Field 55
  Until: 15:00,                           !- Field 56
  0.15,                                   !- Field 57
  Until: 16:00,                           !- Field 58
  0.2,                                    !- Field 59
  Until: 19:00,                           !- Field 60
  0.3,                                    !- Field 61
  Until: 21:00,                           !- Field 62
  0.20,                                   !- Field 63
  Until: 22:00,                           !- Field 64
  0.15,                                   !- Field 65
  Until: 23:00,                           !- Field 66
  0.10,                                   !- Field 67
  Until: 24:00,                           !- Field 68
  0.05;                                   !- Field 69

OS:ScheduleTypeLimits,
  {66dcb8fd-5891-4fc7-a77f-f18799bd99cc}, !- Handle
  Fraction,                               !- Name
  0,                                      !- Lower Limit Value {BasedOnField A4}
  1,                                      !- Upper Limit Value {BasedOnField A4}
  CONTINUOUS;                             !- Numeric Type

OS:SubSurface,
  {d1f9053e-e281-4897-95da-00d94a87cf41}, !- Handle
  Dining_Wall_South_Window,               !- Name
  FixedWindow,                            !- Sub Surface Type
  {541b5c5f-2b02-468f-b0e5-8b4bb52674c7}, !- Construction Name
  {05482383-a406-4942-9885-3ec6aec4cf84}, !- Surface Name
  ,                                       !- Outside Boundary Condition Object
  ,                                       !- View Factor to Ground
  ,                                       !- Shading Control Name
  ,                                       !- Frame and Divider Name
  1,                                      !- Multiplier
  ,                                       !- Number of Vertices
  0.754, 0, 1.9817,                       !- X,Y,Z Vertex 1 {m}
  0.754, 0, 1.0671,                       !- X,Y,Z Vertex 2 {m}
  21.855, 0, 1.0671,                      !- X,Y,Z Vertex 3 {m}
  21.855, 0, 1.9817;                      !- X,Y,Z Vertex 4 {m}

OS:Construction,
  {541b5c5f-2b02-468f-b0e5-8b4bb52674c7}, !- Handle
  Window Non-res Fixed,                   !- Name
  ,                                       !- Surface Rendering Name
  {7e4a027a-d15b-427b-a137-bd1444e6d162}; !- Layer 1

OS:WindowMaterial:SimpleGlazingSystem,
  {7e4a027a-d15b-427b-a137-bd1444e6d162}, !- Handle
  NonRes Fixed Assembly Window,           !- Name
  3.23646,                                !- U-Factor {W/m2-K}
  0.39;                                   !- Solar Heat Gain Coefficient

OS:Surface,
  {05482383-a406-4942-9885-3ec6aec4cf84}, !- Handle
  Dining_Wall_South,                      !- Name
  Wall,                                   !- Surface Type
  {e706c668-1ebb-4240-9db6-70a4246fa3c9}, !- Construction Name
  {20892b4a-8b6b-4f97-ba1e-c9cfe67e0fae}, !- Space Name
  Outdoors,                               !- Outside Boundary Condition
  ,                                       !- Outside Boundary Condition Object
  SunExposed,                             !- Sun Exposure
  WindExposed,                            !- Wind Exposure
  ,                                       !- View Factor to Ground
  ,                                       !- Number of Vertices
  0, 0, 3.0488,                           !- X,Y,Z Vertex 1 {m}
  0, 0, 0,                                !- X,Y,Z Vertex 2 {m}
  22.6087, 0, 0,                          !- X,Y,Z Vertex 3 {m}
  22.6087, 0, 3.0488;                     !- X,Y,Z Vertex 4 {m}

OS:Construction,
  {e706c668-1ebb-4240-9db6-70a4246fa3c9}, !- Handle
  Steel Frame Non-res Ext Wall,           !- Name
  ,                                       !- Surface Rendering Name
  {2b5c2ebd-56a3-4f69-99b4-778eb54a55dc}, !- Layer 1
  {a181f455-eda7-4eeb-8319-957c875a5899}, !- Layer 2
  {e8e8ca3a-3e58-4327-b4da-bd68df322178}; !- Layer 3

OS:Material,
  {2b5c2ebd-56a3-4f69-99b4-778eb54a55dc}, !- Handle
  Wood Siding,                            !- Name
  MediumSmooth,                           !- Roughness
  0.01,                                   !- Thickness {m}
  0.11,                                   !- Conductivity {W/m-K}
  544.62,                                 !- Density {kg/m3}
  1210,                                   !- Specific Heat {J/kg-K}
  0.9,                                    !- Thermal Absorptance
  0.78,                                   !- Solar Absorptance
  0.78;                                   !- Visible Absorptance

OS:Material,
  {a181f455-eda7-4eeb-8319-957c875a5899}, !- Handle
  Steel Frame NonRes Wall Insulation,     !- Name
  MediumRough,                            !- Roughness
  0.0870564552646045,                     !- Thickness {m}
  0.049,                                  !- Conductivity {W/m-K}
  265,                                    !- Density {kg/m3}
  836.8,                                  !- Specific Heat {J/kg-K}
  0.9,                                    !- Thermal Absorptance
  0.7,                                    !- Solar Absorptance
  0.7;                                    !- Visible Absorptance

OS:Material,
  {e8e8ca3a-3e58-4327-b4da-bd68df322178}, !- Handle
  1/2IN Gypsum,                           !- Name
  Smooth,                                 !- Roughness
  0.0127,                                 !- Thickness {m}
  0.16,                                   !- Conductivity {W/m-K}
  784.9,                                  !- Density {kg/m3}
  830,                                    !- Specific Heat {J/kg-K}
  0.9,                                    !- Thermal Absorptance
  0.92,                                   !- Solar Absorptance
  0.92;                                   !- Visible Absorptance

OS:Space,
  {20892b4a-8b6b-4f97-ba1e-c9cfe67e0fae}, !- Handle
  Dining,                                 !- Name
  {d2e3b5d1-2fe3-4c8c-bf3e-c359ec755578}, !- Space Type Name
  ,                                       !- Default Construction Set Name
  ,                                       !- Default Schedule Set Name
  0,                                      !- Direction of Relative North {deg}
  0,                                      !- X Origin {m}
  0,                                      !- Y Origin {m}
  0,                                      !- Z Origin {m}
  {ad39c6f8-10e1-48bc-bca5-bd8022ca4921}, !- Building Story Name
  {0a456a73-8711-4111-a08a-2ece6eff957f}, !- Thermal Zone Name
  Yes,                                    !- Part of Total Floor Area
  {dcc885fc-4c8e-4dea-91cb-2673430c9c6a}; !- Design Specification Outdoor Air Object Name

OS:Schedule:Compact,
  {4beaec13-fa38-4992-8ccb-d84ba9bc981b}, !- Handle
  HTGSETP_SCH,                            !- Name
  {a04ddb08-c81d-4c0f-99a2-8e737a8e7823}, !- Schedule Type Limits Name
  Through: 12/31,                         !- Field 1
  For: SummerDesignDay,                   !- Field 2
  Until: 24:00,                           !- Field 3
  15.6,                                   !- Field 4
  For: WinterDesignDay,                   !- Field 5
  Until: 24:00,                           !- Field 6
  21,                                     !- Field 7
  For: AllOtherDays,                      !- Field 8
  Until: 01:00,                           !- Field 9
  21,                                     !- Field 10
  Until: 05:00,                           !- Field 11
  15.6,                                   !- Field 12
  Until: 24:00,                           !- Field 13
  21;                                     !- Field 14

OS:Schedule:Compact,
  {cba5a76c-fc7f-4d37-bcc6-290444cb03e5}, !- Handle
  CLGSETP_SCH,                            !- Name
  {a04ddb08-c81d-4c0f-99a2-8e737a8e7823}, !- Schedule Type Limits Name
  Through: 12/31,                         !- Field 1
  For: WinterDesignDay,                   !- Field 2
  Until: 24:00,                           !- Field 3
  30,                                     !- Field 4
  For: AllOtherDays,                      !- Field 5
  Until: 01:00,                           !- Field 6
  24,                                     !- Field 7
  Until: 05:00,                           !- Field 8
  30,                                     !- Field 9
  Until: 24:00,                           !- Field 10
  24;                                     !- Field 11

OS:Material,
  {bd7c3e9f-e391-4f6c-9b01-2658070f40f1}, !- Handle
  Metal Decking,                          !- Name
  MediumSmooth,                           !- Roughness
  0.0015,                                 !- Thickness {m}
  45.006,                                 !- Conductivity {W/m-K}
  7680,                                   !- Density {kg/m3}
  418.4,                                  !- Specific Heat {J/kg-K}
  0.9,                                    !- Thermal Absorptance
  0.7,                                    !- Solar Absorptance
  0.3;                                    !- Visible Absorptance

OS:Curve:Cubic,
  {d7e04e77-6733-4438-86d3-3eece5d82840}, !- Handle
  Kitchen_Case:1_WALKINFREEZERSingleShelfHorizontal_LatentEnergyMult, !- Name
  0.020376,                               !- Coefficient1 Constant
  0.00024378,                             !- Coefficient2 x
  1.14e-005,                              !- Coefficient3 x**2
  1.811e-007,                             !- Coefficient4 x**3
  -35,                                    !- Minimum Value of x {BasedOnField A2}
  20;                                     !- Maximum Value of x {BasedOnField A2}

OS:Surface,
  {43a4af4f-2909-42eb-ade2-7205617a5298}, !- Handle
  attic-floor-kitchen,                    !- Name
  Floor,                                  !- Surface Type
  {15ae4996-46b6-4eaa-b4f5-77ee94010b6a}, !- Construction Name
  {1c44e89e-8c05-42c5-9818-0826fd2a62a7}, !- Space Name
  Surface,                                !- Outside Boundary Condition
  {c410cb59-b839-4369-89dc-1378f185f8b7}, !- Outside Boundary Condition Object
  NoSun,                                  !- Sun Exposure
  NoWind,                                 !- Wind Exposure
  ,                                       !- View Factor to Ground
  ,                                       !- Number of Vertices
  22.6087, 22.6087, 0,                    !- X,Y,Z Vertex 1 {m}
  22.6087, 16.4427, 0,                    !- X,Y,Z Vertex 2 {m}
  0, 16.4427, 0,                          !- X,Y,Z Vertex 3 {m}
  0, 22.6087, 0;                          !- X,Y,Z Vertex 4 {m}

OS:Construction,
  {15ae4996-46b6-4eaa-b4f5-77ee94010b6a}, !- Handle
  Attic Non-res Floor,                    !- Name
  ,                                       !- Surface Rendering Name
  {e8e8ca3a-3e58-4327-b4da-bd68df322178}, !- Layer 1
  {d89b63c1-9138-4685-a3a4-12849c4020db}, !- Layer 2
  {e8e8ca3a-3e58-4327-b4da-bd68df322178}; !- Layer 3

OS:Material,
  {d89b63c1-9138-4685-a3a4-12849c4020db}, !- Handle
  AtticFloor NonRes Insulation,           !- Name
  MediumRough,                            !- Roughness
  0.236804989096202,                      !- Thickness {m}
  0.049,                                  !- Conductivity {W/m-K}
  265,                                    !- Density {kg/m3}
  836.8,                                  !- Specific Heat {J/kg-K}
  0.9,                                    !- Thermal Absorptance
  0.7,                                    !- Solar Absorptance
  0.7;                                    !- Visible Absorptance

OS:Space,
  {1c44e89e-8c05-42c5-9818-0826fd2a62a7}, !- Handle
  attic,                                  !- Name
  {634d7d4f-bf6e-4993-b4b9-5a406ce33bb0}, !- Space Type Name
  ,                                       !- Default Construction Set Name
  ,                                       !- Default Schedule Set Name
  0,                                      !- Direction of Relative North {deg}
  0,                                      !- X Origin {m}
  0,                                      !- Y Origin {m}
  3.0488,                                 !- Z Origin {m}
  {f9f3a3ad-e768-4175-95fb-c5b25c5498ba}, !- Building Story Name
  ,                                       !- Thermal Zone Name
  No;                                     !- Part of Total Floor Area

OS:Schedule:Compact,
  {c7d2d511-9b4b-48a5-bf43-f4942226d5e2}, !- Handle
  Kitchen_Case:1_WALKINFREEZER_CaseDefrost2aDaySched, !- Name
  {2fb3df35-529a-49f5-b033-76797e64ecf5}, !- Schedule Type Limits Name
  Through: 12/31,                         !- Field 1
  For:AllDays,                            !- Field 2
  Interpolate:Yes,                        !- Field 3
  Until: 11:00,                           !- Field 4
  0,                                      !- Field 5
  Until: 11:20,                           !- Field 6
  1,                                      !- Field 7
  Until: 23:00,                           !- Field 8
  0,                                      !- Field 9
  Until: 23:20,                           !- Field 10
  1,                                      !- Field 11
  Until: 24:00,                           !- Field 12
  0;                                      !- Field 13

OS:ScheduleTypeLimits,
  {2fb3df35-529a-49f5-b033-76797e64ecf5}, !- Handle
  On/Off,                                 !- Name
  0,                                      !- Lower Limit Value {BasedOnField A4}
  1,                                      !- Upper Limit Value {BasedOnField A4}
  DISCRETE,                               !- Numeric Type
  Availability;                           !- Unit Type

OS:SpaceInfiltration:DesignFlowRate,
  {3b6a3079-c5da-45be-80d5-c8f03e19fadc}, !- Handle
  Dining_Infiltration,                    !- Name
  {20892b4a-8b6b-4f97-ba1e-c9cfe67e0fae}, !- Space or SpaceType Name
  {6391b528-210c-4e70-924a-c0d3aced9614}, !- Schedule Name
  Flow/ExteriorArea,                      !- Design Flow Rate Calculation Method
  ,                                       !- Design Flow Rate {m3/s}
  ,                                       !- Flow per Space Floor Area {m3/s-m2}
  0.000302,                               !- Flow per Exterior Surface Area {m3/s-m2}
  ,                                       !- Air Changes per Hour {1/hr}
  1,                                      !- Constant Term Coefficient
  0,                                      !- Temperature Term Coefficient
  0,                                      !- Velocity Term Coefficient
  0;                                      !- Velocity Squared Term Coefficient

OS:Schedule:Compact,
  {6391b528-210c-4e70-924a-c0d3aced9614}, !- Handle
  INFIL_HALF_ON_SCH,                      !- Name
  {66dcb8fd-5891-4fc7-a77f-f18799bd99cc}, !- Schedule Type Limits Name
  Through: 12/31,                         !- Field 1
  For: Weekdays SummerDesignDay,          !- Field 2
  Until: 05:00,                           !- Field 3
  1.0,                                    !- Field 4
  Until: 24:00,                           !- Field 5
  0.5,                                    !- Field 6
  For: Saturday WinterDesignDay,          !- Field 7
  Until: 05:00,                           !- Field 8
  1.0,                                    !- Field 9
  Until: 24:00,                           !- Field 10
  0.5,                                    !- Field 11
  For: Sunday Holidays AllOtherDays,      !- Field 12
  Until: 05:00,                           !- Field 13
  1.0,                                    !- Field 14
  Until: 24:00,                           !- Field 15
  0.5;                                    !- Field 16

OS:Curve:Biquadratic,
  {efe8d2a6-b4a4-43a2-8ab2-b92fa570a476}, !- Handle
  Cool-Cap-fT,                            !- Name
  0.9712123,                              !- Coefficient1 Constant
  -0.015275502,                           !- Coefficient2 x
  0.0014434524,                           !- Coefficient3 x**2
  -0.00039321,                            !- Coefficient4 y
  -6.8364e-006,                           !- Coefficient5 y**2
  -0.0002905956,                          !- Coefficient6 x*y
  -100,                                   !- Minimum Value of x {BasedOnField A2}
  100,                                    !- Maximum Value of x {BasedOnField A2}
  -100,                                   !- Minimum Value of y {BasedOnField A3}
  100;                                    !- Maximum Value of y {BasedOnField A3}

OS:Meter,
  {af0820b0-9055-4973-ac5a-d32515264c5a}, !- Handle
  WaterSystems:Electricity,               !- Name
  hourly,                                 !- Reporting Frequency
  False,                                  !- Meter File Only
  False;                                  !- Cumulative

OS:Surface,
  {e8022321-ec25-4d50-b2c1-ea17d7d804e4}, !- Handle
  west-roof,                              !- Name
  RoofCeiling,                            !- Surface Type
  {100ba775-4bc7-4136-87ea-632bd2fcc15a}, !- Construction Name
  {1c44e89e-8c05-42c5-9818-0826fd2a62a7}, !- Space Name
  Outdoors,                               !- Outside Boundary Condition
  ,                                       !- Outside Boundary Condition Object
  SunExposed,                             !- Sun Exposure
  WindExposed,                            !- Wind Exposure
  ,                                       !- View Factor to Ground
  ,                                       !- Number of Vertices
  11.3044, 18.8397, 3.7692,               !- X,Y,Z Vertex 1 {m}
  0, 22.6087, 0,                          !- X,Y,Z Vertex 2 {m}
  0, 0, 0,                                !- X,Y,Z Vertex 3 {m}
  11.3044, 3.769, 3.7692;                 !- X,Y,Z Vertex 4 {m}

OS:Construction,
  {100ba775-4bc7-4136-87ea-632bd2fcc15a}, !- Handle
  Attic Non-res Roof,                     !- Name
  ,                                       !- Surface Rendering Name
  {3dceda0f-642b-4f16-8d6b-45e2bc8fc3a7}, !- Layer 1
  {bd7c3e9f-e391-4f6c-9b01-2658070f40f1}; !- Layer 2

OS:Material,
  {3dceda0f-642b-4f16-8d6b-45e2bc8fc3a7}, !- Handle
  Roof Membrane,                          !- Name
  VeryRough,                              !- Roughness
  0.0095,                                 !- Thickness {m}
  0.16,                                   !- Conductivity {W/m-K}
  1121.29,                                !- Density {kg/m3}
  1460,                                   !- Specific Heat {J/kg-K}
  0.9,                                    !- Thermal Absorptance
  0.7,                                    !- Solar Absorptance
  0.7;                                    !- Visible Absorptance

OS:Schedule:Compact,
  {c3c459b3-f634-426f-ba78-ef94e4ceabc8}, !- Handle
  PlantOnSched,                           !- Name
  {2fb3df35-529a-49f5-b033-76797e64ecf5}, !- Schedule Type Limits Name
  Through: 12/31,                         !- Field 1
  For: AllDays,                           !- Field 2
  Until: 24:00,                           !- Field 3
  1.0;                                    !- Field 4

OS:Meter,
  {c7e55534-b93c-48cf-8860-600d551e6b51}, !- Handle
  Heating:Gas,                            !- Name
  hourly,                                 !- Reporting Frequency
  False,                                  !- Meter File Only
  False;                                  !- Cumulative

OS:Material,