
OS:Version,
  {e6303692-aedb-4f3c-b53b-3c4c7b52c7ed}, !- Handle
  1.8.5;                                  !- Version Identifier

OS:Site,
  {0cd8c652-59db-4e78-a40f-a3a2408f3e0a}, !- Handle
  USA IL-CHICAGO-OHARE,                   !- Name
  41.77,                                  !- Latitude {deg}
  -87.75,                                 !- Longitude {deg}
  -6,                                     !- Time Zone {hr}
  190,                                    !- Elevation {m}
  City;                                   !- Terrain

OS:SimulationControl,
  {82c6b3d9-bb0d-4d6b-9983-744014e58532}, !- Handle
  Yes,                                    !- Do Zone Sizing Calculation
  Yes,                                    !- Do System Sizing Calculation
  Yes,                                    !- Do Plant Sizing Calculation
  No,                                     !- Run Simulation for Sizing Periods
  Yes,                                    !- Run Simulation for Weather File Run Periods
  0.04,                                   !- Loads Convergence Tolerance Value
  0.2,                                    !- Temperature Convergence Tolerance Value {deltaC}
  FullInteriorAndExterior,                !- Solar Distribution
  25,                                     !- Maximum Number of Warmup Days
  6;                                      !- Minimum Number of Warmup Days

OS:Space,
  {6f8635b4-438a-4175-a980-328d3a9c13a7}, !- Handle
  Perimeter_bot_ZN_4,                     !- Name
  {9e97e201-6f61-4673-b679-bc2ab2922352}, !- Space Type Name
  ,                                       !- Default Construction Set Name
  ,                                       !- Default Schedule Set Name
  0,                                      !- Direction of Relative North {deg}
  0,                                      !- X Origin {m}
  0,                                      !- Y Origin {m}
  0,                                      !- Z Origin {m}
  {e420532c-cd42-445a-9dff-c48f5fe05ecf}, !- Building Story Name
  {08909196-b9eb-4fdd-84c5-4ec338d5df0c}, !- Thermal Zone Name
  Yes,                                    !- Part of Total Floor Area
  {f9e347e6-3f89-4224-aa8b-da135ecb9047}; !- Design Specification Outdoor Air Object Name

OS:Schedule:Compact,
  {2bd36ecb-92e2-4bed-b4c7-f1dc31a90cd5}, !- Handle
  HTGSETP_SCH,                            !- Name
  {427b4458-3c3f-4e53-9394-f5d845788b41}, !- Schedule Type Limits Name
  Through: 12/31,                         !- Field 1
  For: Weekdays,                          !- Field 2
  Until: 06:00,                           !- Field 3
  15.6,                                   !- Field 4
  Until: 22:00,                           !- Field 5
  21.0,                                   !- Field 6
  Until: 24:00,                           !- Field 7
  15.6,                                   !- Field 8
  For SummerDesignDay,                    !- Field 9
  Until: 24:00,                           !- Field 10
  15.6,                                   !- Field 11
  For: Saturday,                          !- Field 12
  Until: 06:00,                           !- Field 13
  15.6,                                   !- Field 14
  Until: 18:00,                           !- Field 15
  21.0,                                   !- Field 16
  Until: 24:00,                           !- Field 17
  15.6,                                   !- Field 18
  For: WinterDesignDay,                   !- Field 19
  Until: 24:00,                           !- Field 20
  21.0,                                   !- Field 21
  For: AllOtherDays,                      !- Field 22
  Until: 24:00,                           !- Field 23
  15.6;                                   !- Field 24

OS:ScheduleTypeLimits,
  {427b4458-3c3f-4e53-9394-f5d845788b41}, !- Handle
  Temperature,                            !- Name
  -60,                                    !- Lower Limit Value {BasedOnField A4}
  200,                                    !- Upper Limit Value {BasedOnField A4}
  CONTINUOUS,                             !- Numeric Type
  Temperature;                            !- Unit Type

OS:Schedule:Compact,
  {31d27120-0a75-4b74-98f6-20d48dbc0fd9}, !- Handle
  CLGSETP_SCH,                            !- Name
  {427b4458-3c3f-4e53-9394-f5d845788b41}, !- Schedule Type Limits Name
  Through: 12/31,                         !- Field 1
  For: Weekdays SummerDesignDay,          !- Field 2
  Until: 06:00,                           !- Field 3
  26.7,                                   !- Field 4
  Until: 22:00,                           !- Field 5
  24.0,                                   !- Field 6
  Until: 24:00,                           !- Field 7
  26.7,                                   !- Field 8
  For: Saturday,                          !- Field 9
  Until: 06:00,                           !- Field 10
  26.7,                                   !- Field 11
  Until: 18:00,                           !- Field 12
  24.0,                                   !- Field 13
  Until: 24:00,                           !- Field 14
  26.7,                                   !- Field 15
  For WinterDesignDay,                    !- Field 16
  Until: 24:00,                           !- Field 17
  26.7,                                   !- Field 18
  For: AllOtherDays,                      !- Field 19
  Until: 24:00,                           !- Field 20
  26.7;                                   !- Field 21

OS:DesignSpecification:OutdoorAir,
  {f9e347e6-3f89-4224-aa8b-da135ecb9047}, !- Handle
  SZ DSOA Perimeter_bot_ZN_4,             !- Name
  ,                                       !- Outdoor Air Method
  0.0125,                                 !- Outdoor Air Flow per Person {m3/s-person}
  ,                                       !- Outdoor Air Flow per Floor Area {m3/s-m2}
  ,                                       !- Outdoor Air Flow Rate {m3/s}
  ,                                       !- Outdoor Air Flow Air Changes per Hour {1/hr}
  ;                                       !- Outdoor Air Flow Rate Fraction Schedule Name

OS:Material,
  {1fc9e769-83a6-4bbf-a98d-11f81e7054c7}, !- Handle
  IEAD NonRes Roof Insulation,            !- Name
  MediumRough,                            !- Roughness
  0.127338688569477,                      !- Thickness {m}
  0.049,                                  !- Conductivity {W/m-K}
  265,                                    !- Density {kg/m3}
  836.8,                                  !- Specific Heat {J/kg-K}
  0.9,                                    !- Thermal Absorptance
  0.7,                                    !- Solar Absorptance
  0.7;                                    !- Visible Absorptance

OS:Surface,
  {88cb792e-52ee-4437-939e-447247f8bc85}, !- Handle
  Core_mid_ZN_5_Ceiling,                  !- Name
  RoofCeiling,                            !- Surface Type
  {4dd22163-0a04-449f-b928-6a211f52a9f1}, !- Construction Name
  {12d29a57-256b-4ebc-9cf3-aec16036681b}, !- Space Name
  Surface,                                !- Outside Boundary Condition
  {0ec4b068-710a-471d-b6ad-97ffc334db2c}, !- Outside Boundary Condition Object
  NoSun,                                  !- Sun Exposure
  NoWind,                                 !- Wind Exposure
  ,                                       !- View Factor to Ground
  ,                                       !- Number of Vertices
  68.534, 4.5732, 22.56,                  !- X,Y,Z Vertex 1 {m}
  68.534, 44.165, 22.56,                  !- X,Y,Z Vertex 2 {m}
  4.5732, 44.165, 22.56,                  !- X,Y,Z Vertex 3 {m}
  4.5732, 4.5732, 22.56;                  !- X,Y,Z Vertex 4 {m}

OS:Construction,
  {4dd22163-0a04-449f-b928-6a211f52a9f1}, !- Handle
  DropCeiling,                            !- Name
  ,                                       !- Surface Rendering Name
  {49787c11-91c0-4d42-89de-bee46224d88f}; !- Layer 1

OS:Material,
  {49787c11-91c0-4d42-89de-bee46224d88f}, !- Handle
  Std AC02,                               !- Name
  MediumSmooth,                           !- Roughness
  0.0127,                                 !- Thickness {m}
  0.057,                                  !- Conductivity {W/m-K}
  288,                                    !- Density {kg/m3}
  1339,                                   !- Specific Heat {J/kg-K}
  0.9,                                    !- Thermal Absorptance
  0.7,                                    !- Solar Absorptance
  0.2;                                    !- Visible Absorptance

OS:Space,
  {12d29a57-256b-4ebc-9cf3-aec16036681b}, !- Handle
  Core_mid,                               !- Name
  {9e97e201-6f61-4673-b679-bc2ab2922352}, !- Space Type Name
  ,                                       !- Default Construction Set Name
  ,                                       !- Default Schedule Set Name
  0,                                      !- Direction of Relative North {deg}
  0,                                      !- X Origin {m}
  0,                                      !- Y Origin {m}
  0,                                      !- Z Origin {m}
  {e420532c-cd42-445a-9dff-c48f5fe05ecf}, !- Building Story Name
  {27695013-d200-4c1b-9b25-2887eb94b29c}, !- Thermal Zone Name
  Yes,                                    !- Part of Total Floor Area
  {16118dbd-a279-4b64-9da7-b978eab37000}; !- Design Specification Outdoor Air Object Name

OS:Surface,
  {24f11d54-b0d3-487b-80bb-b9e69f07ea16}, !- Handle
  Perimeter_bot_ZN_4_Wall_North,          !- Name
  Wall,                                   !- Surface Type
  {b83826b8-67b6-4a4f-b632-fb6a5bf609e8}, !- Construction Name
  {6f8635b4-438a-4175-a980-328d3a9c13a7}, !- Space Name
  Surface,                                !- Outside Boundary Condition
  {744dc368-12d0-4bda-aeb5-8263fe0acf50}, !- Outside Boundary Condition Object
  NoSun,                                  !- Sun Exposure
  NoWind,                                 !- Wind Exposure
  ,                                       !- View Factor to Ground
  ,                                       !- Number of Vertices
  4.5732, 44.165, 2.744,                  !- X,Y,Z Vertex 1 {m}
  4.5732, 44.165, 0,                      !- X,Y,Z Vertex 2 {m}
  0, 48.7381, 0,                          !- X,Y,Z Vertex 3 {m}
  0, 48.7381, 2.744;                      !- X,Y,Z Vertex 4 {m}

OS:Construction,
  {b83826b8-67b6-4a4f-b632-fb6a5bf609e8}, !- Handle
  int-walls,                              !- Name
  ,                                       !- Surface Rendering Name
  {bb60574c-eae6-410a-88f8-cd5c99278b23}, !- Layer 1
  {bb60574c-eae6-410a-88f8-cd5c99278b23}; !- Layer 2

OS:Material,
  {bb60574c-eae6-410a-88f8-cd5c99278b23}, !- Handle
  1/2IN Gypsum,                           !- Name
  Smooth,                                 !- Roughness
  0.0127,                                 !- Thickness {m}
  0.16,                                   !- Conductivity {W/m-K}
  784.9,                                  !- Density {kg/m3}
  830,                                    !- Specific Heat {J/kg-K}
  0.9,                                    !- Thermal Absorptance
  0.92,                                   !- Solar Absorptance
  0.92;                                   !- Visible Absorptance

OS:Surface,
  {2af9027b-2348-4379-ae25-2d7f2c6c5d36}, !- Handle
  Core_bot_ZN_5_Floor,                    !- Name
  Floor,                                  !- Surface Type
  {1866d08c-9588-43a2-a5a5-3eac76b7ce4e}, !- Construction Name
  {4f7427f7-dfad-4622-b6ae-0d50e5ce2105}, !- Space Name
  Surface,                                !- Outside Boundary Condition
  {c623eccc-be8b-46ef-bd58-4acac55a8a89}, !- Outside Boundary Condition Object
  NoSun,                                  !- Sun Exposure
  NoWind,                                 !- Wind Exposure
  ,                                       !- View Factor to Ground
  ,                                       !- Number of Vertices
  68.534, 44.165, 0,                      !- X,Y,Z Vertex 1 {m}
  68.534, 4.5732, 0,                      !- X,Y,Z Vertex 2 {m}
  4.5732, 4.5732, 0,                      !- X,Y,Z Vertex 3 {m}
  4.5732, 44.165, 0;                      !- X,Y,Z Vertex 4 {m}

OS:Construction,
  {1866d08c-9588-43a2-a5a5-3eac76b7ce4e}, !- Handle
  INT-FLOOR-TOPSIDE,                      !- Name
  ,                                       !- Surface Rendering Name
  {1207a01a-46fe-4078-bce3-2af4514f94e0}, !- Layer 1
  {9086fe1d-a2d0-44dd-b927-095c2a239c6c}; !- Layer 2

OS:Material,
  {1207a01a-46fe-4078-bce3-2af4514f94e0}, !- Handle
  MAT-CC05 4 HW CONCRETE,                 !- Name
  Rough,                                  !- Roughness
  0.1016,                                 !- Thickness {m}
  1.311,                                  !- Conductivity {W/m-K}
  2240,                                   !- Density {kg/m3}
  836.8,                                  !- Specific Heat {J/kg-K}
  0.9,                                    !- Thermal Absorptance
  0.7,                                    !- Solar Absorptance
  0.7;                                    !- Visible Absorptance

OS:Material:NoMass,
  {9086fe1d-a2d0-44dd-b927-095c2a239c6c}, !- Handle
  CP02 CARPET PAD,                        !- Name
  VeryRough,                              !- Roughness
  0.2165,                                 !- Thermal Resistance {m2-K/W}
  0.9,                                    !- Thermal Absorptance
  0.7,                                    !- Solar Absorptance
  0.8;                                    !- Visible Absorptance

OS:Space,
  {4f7427f7-dfad-4622-b6ae-0d50e5ce2105}, !- Handle
  Core_bottom,                            !- Name
  {9e97e201-6f61-4673-b679-bc2ab2922352}, !- Space Type Name
  ,                                       !- Default Construction Set Name
  ,                                       !- Default Schedule Set Name
  0,                                      !- Direction of Relative North {deg}
  0,                                      !- X Origin {m}
  0,                                      !- Y Origin {m}
  0,                                      !- Z Origin {m}
  {e420532c-cd42-445a-9dff-c48f5fe05ecf}, !- Building Story Name
  {27695013-d200-4c1b-9b25-2887eb94b29c}, !- Thermal Zone Name
  Yes,                                    !- Part of Total Floor Area
  {352edef0-6757-440f-95de-d2af2463212c}; !- Design Specification Outdoor Air Object Name

OS:People:Definition,
  {56f4faeb-1ae7-4100-9bfa-c6bcca23ccf7}, !- Handle
  Perimeter_top_ZN_2 People Definition,   !- Name
  Area/Person,                            !- Number of People Calculation Method
  ,                                       !- Number of People {people}
  ,                                       !- People per Space Floor Area {person/m2}
  18.58,                                  !- Space Floor Area per Person {m2/person}
  0.3,                                    !- Fraction Radiant
  ,                                       !- Sensible Heat Fraction
  ,                                       !- Carbon Dioxide Generation Rate {m3/s-W}
  No,                                     !- Enable ASHRAE 55 Comfort Warnings
  ZoneAveraged;                           !- Mean Radiant Temperature Calculation Type

OS:People,
  {4b76759c-bee2-45ef-b7c9-73aadfa56c09}, !- Handle
  Perimeter_top_ZN_2 People,              !- Name
  {56f4faeb-1ae7-4100-9bfa-c6bcca23ccf7}, !- People Definition Name
  {06b83d38-f43f-4e43-9fa3-0f01352a5d68}, !- Space or SpaceType Name
  {3b02f8e8-94fa-4804-b70e-8b1158618ee7}, !- Number of People Schedule Name
  {956a72e4-5112-41d6-a5b4-0ded0ecddd70}, !- Activity Level Schedule Name
  ,                                       !- Surface Name/Angle Factor List Name
  {86c5ecd4-fd8d-4ad3-80ee-f5b4340fccfd}; !- Work Efficiency Schedule Name

OS:Space,
  {06b83d38-f43f-4e43-9fa3-0f01352a5d68}, !- Handle
  Perimeter_top_ZN_2,                     !- Name
  {9e97e201-6f61-4673-b679-bc2ab2922352}, !- Space Type Name
  ,                                       !- Default Construction Set Name
  ,                                       !- Default Schedule Set Name
  0,                                      !- Direction of Relative North {deg}
  0,                                      !- X Origin {m}
  0,                                      !- Y Origin {m}
  0,                                      !- Z Origin {m}
  {e420532c-cd42-445a-9dff-c48f5fe05ecf}, !- Building Story Name
  {525ed09e-91a3-40da-804b-23934a0d2ae8}, !- Thermal Zone Name
  Yes,                                    !- Part of Total Floor Area
  {6eefc3cc-12ce-48f6-bf44-3db03f8f2190}; !- Design Specification Outdoor Air Object Name

OS:Schedule:Compact,
  {3b02f8e8-94fa-4804-b70e-8b1158618ee7}, !- Handle
  BLDG_OCC_SCH,                           !- Name
  {e703067f-992f-40dc-8cff-22cc97e18922}, !- Schedule Type Limits Name
  Through: 12/31,                         !- Field 1
  For: SummerDesignDay,                   !- Field 2
  Until: 06:00,                           !- Field 3
  0.0,                                    !- Field 4
  Until: 22:00,                           !- Field 5
  1.0,                                    !- Field 6
  Until: 24:00,                           !- Field 7
  0.05,                                   !- Field 8
  For: Weekdays,                          !- Field 9
  Until: 06:00,                           !- Field 10
  0.0,                                    !- Field 11
  Until: 07:00,                           !- Field 12
  0.1,                                    !- Field 13
  Until: 08:00,                           !- Field 14
  0.2,                                    !- Field 15
  Until: 12:00,                           !- Field 16
  0.95,                                   !- Field 17
  Until: 13:00,                           !- Field 18
  0.5,                                    !- Field 19
  Until: 17:00,                           !- Field 20
  0.95,                                   !- Field 21
  Until: 18:00,                           !- Field 22
  0.7,                                    !- Field 23
  Until: 20:00,                           !- Field 24
  0.4,                                    !- Field 25
  Until: 22:00,                           !- Field 26
  0.1,                                    !- Field 27
  Until: 24:00,                           !- Field 28
  0.05,                                   !- Field 29
  For: Saturday,                          !- Field 30
  Until: 06:00,                           !- Field 31
  0.0,                                    !- Field 32
  Until: 08:00,                           !- Field 33
  0.1,                                    !- Field 34
  Until: 14:00,                           !- Field 35
  0.5,                                    !- Field 36
  Until: 17:00,                           !- Field 37
  0.1,                                    !- Field 38
  Until: 24:00,                           !- Field 39
  0.0,                                    !- Field 40
  For: AllOtherDays,                      !- Field 41
  Until: 24:00,                           !- Field 42
  0.0;                                    !- Field 43

OS:ScheduleTypeLimits,
  {e703067f-992f-40dc-8cff-22cc97e18922}, !- Handle
  Fraction,                               !- Name
  0,                                      !- Lower Limit Value {BasedOnField A4}
  1,                                      !- Upper Limit Value {BasedOnField A4}
  CONTINUOUS;                             !- Numeric Type

OS:Schedule:Compact,
  {956a72e4-5112-41d6-a5b4-0ded0ecddd70}, !- Handle
  ACTIVITY_SCH,                           !- Name
  {9c4129e8-72da-47b4-a55d-d0adf2ffd667}, !- Schedule Type Limits Name
  Through: 12/31,                         !- Field 1
  For: AllDays,                           !- Field 2
  Until: 24:00,                           !- Field 3
  120;                                    !- Field 4

OS:ScheduleTypeLimits,
  {06d36039-8b9a-4475-ad83-f29e06858dcb}, !- Handle
  {c94f7247-42f3-4d03-820c-d553113666c4}; !- Name

OS:ScheduleTypeLimits,
  {9c4129e8-72da-47b4-a55d-d0adf2ffd667}, !- Handle
  ActivityLevel,                          !- Name
  0,                                      !- Lower Limit Value {BasedOnField A4}
  ,                                       !- Upper Limit Value {BasedOnField A4}
  Continuous,                             !- Numeric Type
  ActivityLevel;                          !- Unit Type

OS:Schedule:Compact,
  {86c5ecd4-fd8d-4ad3-80ee-f5b4340fccfd}, !- Handle
  WORK_EFF_SCH,                           !- Name
  {e703067f-992f-40dc-8cff-22cc97e18922}, !- Schedule Type Limits Name
  Through: 12/31,                         !- Field 1
  For: AllDays,                           !- Field 2
  Until: 24:00,                           !- Field 3
  0.0;                                    !- Field 4

OS:SpaceInfiltration:DesignFlowRate,
  {45dbdb8a-fa48-4a2b-ad83-c4e1e2092f37}, !- Handle
  Perimeter_top_ZN_3_Infiltration,        !- Name
  {1f3db0ee-bea4-4323-9212-f93ae9741a0e}, !- Space or SpaceType Name
  {a13223e2-aa3b-437c-8775-c952706109c6}, !- Schedule Name
  Flow/ExteriorArea,                      !- Design Flow Rate Calculation Method
  ,                                       !- Design Flow Rate {m3/s}
  ,                                       !- Flow per Space Floor Area {m3/s-m2}
  0.000302,                               !- Flow per Exterior Surface Area {m3/s-m2}
  ,                                       !- Air Changes per Hour {1/hr}
  1,                                      !- Constant Term Coefficient
  0,                                      !- Temperature Term Coefficient
  0,                                      !- Velocity Term Coefficient
  0;                                      !- Velocity Squared Term Coefficient

OS:Space,
  {1f3db0ee-bea4-4323-9212-f93ae9741a0e}, !- Handle
  Perimeter_top_ZN_3,                     !- Name
  {9e97e201-6f61-4673-b679-bc2ab2922352}, !- Space Type Name
  ,                                       !- Default Construction Set Name
  ,                                       !- Default Schedule Set Name
  0,                                      !- Direction of Relative North {deg}
  0,                                      !- X Origin {m}
  0,                                      !- Y Origin {m}
  0,                                      !- Z Origin {m}
  {e420532c-cd42-445a-9dff-c48f5fe05ecf}, !- Building Story Name
  {722d5bb8-b599-467e-a609-1959f116f1dd}, !- Thermal Zone Name
  Yes,                                    !- Part of Total Floor Area
  {b99bd502-c4db-448b-a00d-2a928fae0ac6}; !- Design Specification Outdoor Air Object Name

OS:Schedule:Compact,
  {a13223e2-aa3b-437c-8775-c952706109c6}, !- Handle
  INFIL_QUARTER_ON_SCH,                   !- Name
  {e703067f-992f-40dc-8cff-22cc97e18922}, !- Schedule Type Limits Name
  Through: 12/31,                         !- Field 1
  For: Weekdays SummerDesignDay,          !- Field 2
  Until: 06:00,                           !- Field 3
  1.0,                                    !- Field 4
  Until: 22:00,                           !- Field 5
  0.25,                                   !- Field 6
  Until: 24:00,                           !- Field 7
  1.0,                                    !- Field 8
  For: Saturday WinterDesignDay,          !- Field 9
  Until: 06:00,                           !- Field 10
  1.0,                                    !- Field 11
  Until: 18:00,                           !- Field 12
  0.25,                                   !- Field 13
  Until: 24:00,                           !- Field 14
  1.0,                                    !- Field 15
  For: Sunday Holidays AllOtherDays,      !- Field 16
  Until: 24:00,                           !- Field 17
  1.0;                                    !- Field 18

OS:Meter,
  {ec7162a7-2045-45c6-bda6-ad708d12b404}, !- Handle
  Cooling:Electricity,                    !- Name
  hourly,                                 !- Reporting Frequency
  False,                                  !- Meter File Only
  False;                                  !- Cumulative

OS:Surface,
  {1cbbfe88-134d-4abb-91b6-35a730cf62d5}, !- Handle
  GroundFloor_Plenum_Floor_3,             !- Name
  Floor,                                  !- Surface Type
  {4dd22163-0a04-449f-b928-6a211f52a9f1}, !- Construction Name
  {03cc15da-913a-4343-9cea-bf8e6cd58099}, !- Space Name
  Surface,                                !- Outside Boundary Condition
  {8e3889df-6d3f-45f1-9e7a-7f71c6242e3a}, !- Outside Boundary Condition Object
  NoSun,                                  !- Sun Exposure
  NoWind,                                 !- Wind Exposure
  ,                                       !- View Factor to Ground
  ,                                       !- Number of Vertices
  73.1072, 48.7381, 2.744,                !- X,Y,Z Vertex 1 {m}
  68.534, 44.165, 2.744,                  !- X,Y,Z Vertex 2 {m}
  4.5732, 44.165, 2.744,                  !- X,Y,Z Vertex 3 {m}
  0, 48.7381, 2.744;                      !- X,Y,Z Vertex 4 {m}

OS:Space,
  {03cc15da-913a-4343-9cea-bf8e6cd58099}, !- Handle
  GroundFloor_Plenum,                     !- Name
  {6650ef04-5de0-463e-a080-81b8777cd62d}, !- Space Type Name
  ,                                       !- Default Construction Set Name
  ,                                       !- Default Schedule Set Name
  0,                                      !- Direction of Relative North {deg}
  0,                                      !- X Origin {m}
  0,                                      !- Y Origin {m}
  0,                                      !- Z Origin {m}
  {e420532c-cd42-445a-9dff-c48f5fe05ecf}, !- Building Story Name
  ,                                       !- Thermal Zone Name
  No;                                     !- Part of Total Floor Area

OS:WindowMaterial:SimpleGlazingSystem,
  {7807b2ac-bb12-4a2b-8040-066d06430cd0}, !- Handle
  NonRes Fixed Assembly Window,           !- Name
  3.23646,                                !- U-Factor {W/m2-K}
  0.39;                                   !- Solar Heat Gain Coefficient

OS:Surface,
  {79cd4e70-ea64-43e4-875d-869eba2e1e54}, !- Handle
  Perimeter_mid_ZN_4_Ceiling,             !- Name
  RoofCeiling,                            !- Surface Type
  {4dd22163-0a04-449f-b928-6a211f52a9f1}, !- Construction Name
  {a48048de-af57-4c77-b033-ba4efd03e318}, !- Space Name
  Surface,                                !- Outside Boundary Condition
  {0f3b69a7-6e3d-4a69-a90b-9ec2db2ec3a3}, !- Outside Boundary Condition Object
  NoSun,                                  !- Sun Exposure
  NoWind,                                 !- Wind Exposure
  ,                                       !- View Factor to Ground
  ,                                       !- Number of Vertices
  0, 0, 22.56,                            !- X,Y,Z Vertex 1 {m}
  4.5732, 4.5732, 22.56,                  !- X,Y,Z Vertex 2 {m}
  4.5732, 44.165, 22.56,                  !- X,Y,Z Vertex 3 {m}
  0, 48.7381, 22.56;                      !- X,Y,Z Vertex 4 {m}

OS:Space,
  {a48048de-af57-4c77-b033-ba4efd03e318}, !- Handle
  Perimeter_mid_ZN_4,                     !- Name
  {9e97e201-6f61-4673-b679-bc2ab2922352}, !- Space Type Name
  ,                                       !- Default Construction Set Name
  ,                                       !- Default Schedule Set Name
  0,                                      !- Direction of Relative North {deg}
  0,                                      !- X Origin {m}
  0,                                      !- Y Origin {m}
  0,                                      !- Z Origin {m}
  {e420532c-cd42-445a-9dff-c48f5fe05ecf}, !- Building Story Name
  {08909196-b9eb-4fdd-84c5-4ec338d5df0c}, !- Thermal Zone Name
  Yes,                                    !- Part of Total Floor Area
  {7d48724e-0036-439c-a7fa-4301950595e7}; !- Design Specification Outdoor Air Object Name

OS:HeatBalanceAlgorithm,
  {3d38f007-d11f-4608-906d-1e3b1717356b}, !- Handle
  ConductionTransferFunction,             !- Algorithm
  200;                                    !- Surface Temperature Upper Limit {C}

OS:People:Definition,
  {c0fe9dc3-1cd3-459c-a5f8-f6e5571a6950}, !- Handle
  Perimeter_bot_ZN_3 People Definition,   !- Name
  Area/Person,                            !- Number of People Calculation Method
  ,                                       !- Number of People {people}
  ,                                       !- People per Space Floor Area {person/m2}
  18.58,                                  !- Space Floor Area per Person {m2/person}
  0.3,                                    !- Fraction Radiant
  ,                                       !- Sensible Heat Fraction
  ,                                       !- Carbon Dioxide Generation Rate {m3/s-W}
  No,                                     !- Enable ASHRAE 55 Comfort Warnings
  ZoneAveraged;                           !- Mean Radiant Temperature Calculation Type

OS:People,
  {6527ad5f-936b-4a9e-8050-12b6a9cbad07}, !- Handle
  Perimeter_bot_ZN_3 People,              !- Name
  {c0fe9dc3-1cd3-459c-a5f8-f6e5571a6950}, !- People Definition Name
  {40c4f88f-59cb-466d-9992-8cca72915d98}, !- Space or SpaceType Name
  {3b02f8e8-94fa-4804-b70e-8b1158618ee7}, !- Number of People Schedule Name
  {956a72e4-5112-41d6-a5b4-0ded0ecddd70}, !- Activity Level Schedule Name
  ,                                       !- Surface Name/Angle Factor List Name
  {86c5ecd4-fd8d-4ad3-80ee-f5b4340fccfd}; !- Work Efficiency Schedule Name

OS:Space,
  {40c4f88f-59cb-466d-9992-8cca72915d98}, !- Handle
  Perimeter_bot_ZN_3,                     !- Name
  {9e97e201-6f61-4673-b679-bc2ab2922352}, !- Space Type Name
  ,                                       !- Default Construction Set Name
  ,                                       !- Default Schedule Set Name
  0,                                      !- Direction of Relative North {deg}
  0,                                      !- X Origin {m}