
OS:Version,
  {7975bb8d-8547-4895-be06-f0c8e35d4385}, !- Handle
  1.8.5;                                  !- Version Identifier

OS:Site,
  {42af323a-1f3d-4898-a053-219d76024150}, !- Handle
  USA IL-CHICAGO-OHARE,                   !- Name
  41.77,                                  !- Latitude {deg}
  -87.75,                                 !- Longitude {deg}
  -6,                                     !- Time Zone {hr}
  190,                                    !- Elevation {m}
  City;                                   !- Terrain

OS:SimulationControl,
  {6eb656b3-509a-4865-ba24-988778fe86c5}, !- Handle
  Yes,                                    !- Do Zone Sizing Calculation
  Yes,                                    !- Do System Sizing Calculation
  Yes,                                    !- Do Plant Sizing Calculation
  No,                                     !- Run Simulation for Sizing Periods
  Yes,                                    !- Run Simulation for Weather File Run Periods
  0.04,                                   !- Loads Convergence Tolerance Value
  0.2,                                    !- Temperature Convergence Tolerance Value {deltaC}
  FullInteriorAndExterior,                !- Solar Distribution
  25,                                     !- Maximum Number of Warmup Days
  6;                                      !- Minimum Number of Warmup Days

OS:Material,
  {0043743f-42c6-4a73-a69f-e88424286334}, !- Handle
  1IN Stucco,                             !- Name
  Smooth,                                 !- Roughness
  0.0253,                                 !- Thickness {m}
  0.6918,                                 !- Conductivity {W/m-K}
  1858,                                   !- Density {kg/m3}
  837,                                    !- Specific Heat {J/kg-K}
  0.9,                                    !- Thermal Absorptance
  0.92,                                   !- Solar Absorptance
  0.92;                                   !- Visible Absorptance

OS:Space,
  {399b8fb9-57f5-4c65-98a9-50acf0c0e965}, !- Handle
  Perimeter_top_ZN_4,                     !- Name
  {f5d04296-fc0f-4483-89a5-428db49a5174}, !- Space Type Name
  ,                                       !- Default Construction Set Name
  ,                                       !- Default Schedule Set Name
  0,                                      !- Direction of Relative North {deg}
  0,                                      !- X Origin {m}
  0,                                      !- Y Origin {m}
  0,                                      !- Z Origin {m}
  {a3a5d8c1-fffd-4e3a-9b89-c50609a074b2}, !- Building Story Name
  {5a71a518-f446-473b-8eff-08096091c9c5}, !- Thermal Zone Name
  Yes,                                    !- Part of Total Floor Area
  {4f1ee4e5-0586-4c77-9476-85ca1db86455}; !- Design Specification Outdoor Air Object Name

OS:Schedule:Compact,
  {6edaddcd-646b-4eab-8551-a588c48e500a}, !- Handle
  HTGSETP_SCH,                            !- Name
  {ed31ae98-6f26-425d-a47a-00f8033b715b}, !- Schedule Type Limits Name
  Through: 12/31,                         !- Field 1
  For: Weekdays,                          !- Field 2
  Until: 06:00,                           !- Field 3
  15.6,                                   !- Field 4
  Until: 22:00,                           !- Field 5
  21.0,                                   !- Field 6
  Until: 24:00,                           !- Field 7
  15.6,                                   !- Field 8
  For SummerDesignDay,                    !- Field 9
  Until: 24:00,                           !- Field 10
  15.6,                                   !- Field 11
  For: Saturday,                          !- Field 12
  Until: 06:00,                           !- Field 13
  15.6,                                   !- Field 14
  Until: 18:00,                           !- Field 15
  21.0,                                   !- Field 16
  Until: 24:00,                           !- Field 17
  15.6,                                   !- Field 18
  For: WinterDesignDay,                   !- Field 19
  Until: 24:00,                           !- Field 20
  21.0,                                   !- Field 21
  For: AllOtherDays,                      !- Field 22
  Until: 24:00,                           !- Field 23
  15.6;                                   !- Field 24

OS:ScheduleTypeLimits,
  {ed31ae98-6f26-425d-a47a-00f8033b715b}, !- Handle
  Temperature,                            !- Name
  -60,                                    !- Lower Limit Value {BasedOnField A4}
  200,                                    !- Upper Limit Value {BasedOnField A4}
  CONTINUOUS,                             !- Numeric Type
  Temperature;                            !- Unit Type

OS:Schedule:Compact,
  {e78b568c-e390-4c5d-b1c7-aea9f1162194}, !- Handle
  CLGSETP_SCH,                            !- Name
  {ed31ae98-6f26-425d-a47a-00f8033b715b}, !- Schedule Type Limits Name
  Through: 12/31,                         !- Field 1
  For: Weekdays SummerDesignDay,          !- Field 2
  Until: 06:00,                           !- Field 3
  26.7,                                   !- Field 4
  Until: 22:00,                           !- Field 5
  24.0,                                   !- Field 6
  Until: 24:00,                           !- Field 7
  26.7,                                   !- Field 8
  For: Saturday,                          !- Field 9
  Until: 06:00,                           !- Field 10
  26.7,                                   !- Field 11
  Until: 18:00,                           !- Field 12
  24.0,                                   !- Field 13
  Until: 24:00,                           !- Field 14
  26.7,                                   !- Field 15
  For WinterDesignDay,                    !- Field 16
  Until: 24:00,                           !- Field 17
  26.7,                                   !- Field 18
  For: AllOtherDays,                      !- Field 19
  Until: 24:00,                           !- Field 20
  26.7;                                   !- Field 21

OS:ThermostatSetpoint:DualSetpoint,
  {2ce3250d-8ddd-43a8-aa90-90cbb1297bb6}, !- Handle
  {f70f4ec3-85a3-43f6-b45b-c9df2e586da9}, !- Name
  {6edaddcd-646b-4eab-8551-a588c48e500a}, !- Heating Setpoint Temperature Schedule Name
  {e78b568c-e390-4c5d-b1c7-aea9f1162194}; !- Cooling Setpoint Temperature Schedule Name

OS:Surface,
  {c4dd9d31-f484-471c-ae12-37af29eac542}, !- Handle
  Perimeter_top_ZN_3_Ceiling,             !- Name
  RoofCeiling,                            !- Surface Type
  {933ecd4c-4386-4958-9145-53fa393406b7}, !- Construction Name
  {979e9c3a-c374-4e9d-b416-4bb303310433}, !- Space Name
  Surface,                                !- Outside Boundary Condition
  {fffa87ff-d924-4ff7-b1e5-697db116b169}, !- Outside Boundary Condition Object
  NoSun,                                  !- Sun Exposure
  NoWind,                                 !- Wind Exposure
  ,                                       !- View Factor to Ground
  ,                                       !- Number of Vertices
  68.534, 44.165, 46.3392,                !- X,Y,Z Vertex 1 {m}
  73.1072, 48.7381, 46.3392,              !- X,Y,Z Vertex 2 {m}
  0, 48.7381, 46.3392,                    !- X,Y,Z Vertex 3 {m}
  4.5732, 44.165, 46.3392;                !- X,Y,Z Vertex 4 {m}

OS:Construction,
  {933ecd4c-4386-4958-9145-53fa393406b7}, !- Handle
  DropCeiling,                            !- Name
  ,                                       !- Surface Rendering Name
  {3e081276-18ba-4b2c-9186-9ff090b03c7d}; !- Layer 1

OS:Material,
  {3e081276-18ba-4b2c-9186-9ff090b03c7d}, !- Handle
  Std AC02,                               !- Name
  MediumSmooth,                           !- Roughness
  0.0127,                                 !- Thickness {m}
  0.057,                                  !- Conductivity {W/m-K}
  288,                                    !- Density {kg/m3}
  1339,                                   !- Specific Heat {J/kg-K}
  0.9,                                    !- Thermal Absorptance
  0.7,                                    !- Solar Absorptance
  0.2;                                    !- Visible Absorptance

OS:Space,
  {979e9c3a-c374-4e9d-b416-4bb303310433}, !- Handle
  Perimeter_top_ZN_3,                     !- Name
  {f5d04296-fc0f-4483-89a5-428db49a5174}, !- Space Type Name
  ,                                       !- Default Construction Set Name
  ,                                       !- Default Schedule Set Name
  0,                                      !- Direction of Relative North {deg}
  0,                                      !- X Origin {m}
  0,                                      !- Y Origin {m}
  0,                                      !- Z Origin {m}
  {a3a5d8c1-fffd-4e3a-9b89-c50609a074b2}, !- Building Story Name
  {e2309537-0707-41e6-9bca-489ee493e5a0}, !- Thermal Zone Name
  Yes,                                    !- Part of Total Floor Area
  {b6c05c5b-ee31-468c-94d7-fd47c52e7cc1}; !- Design Specification Outdoor Air Object Name

OS:People:Definition,
  {a4422c46-e557-47e6-bf6f-fd3c8397759c}, !- Handle
  Perimeter_bot_ZN_2 People Definition,   !- Name
  Area/Person,                            !- Number of People Calculation Method
  ,                                       !- Number of People {people}
  ,                                       !- People per Space Floor Area {person/m2}
  18.58,                                  !- Space Floor Area per Person {m2/person}
  0.3,                                    !- Fraction Radiant
  ,                                       !- Sensible Heat Fraction
  ,                                       !- Carbon Dioxide Generation Rate {m3/s-W}
  No,                                     !- Enable ASHRAE 55 Comfort Warnings
  ZoneAveraged;                           !- Mean Radiant Temperature Calculation Type

OS:People,
  {c1b07067-b324-4502-89c4-ed568f23af83}, !- Handle
  Perimeter_bot_ZN_2 People,              !- Name
  {a4422c46-e557-47e6-bf6f-fd3c8397759c}, !- People Definition Name
  {ec434682-2dde-4bc0-b21c-5de6658dd098}, !- Space or SpaceType Name
  {3897784a-5f4a-43a8-9272-db7061aba924}, !- Number of People Schedule Name
  {e1081bc2-6b17-4e9e-a170-81d1fd14fd0b}, !- Activity Level Schedule Name
  ,                                       !- Surface Name/Angle Factor List Name
  {6f9a17d0-d7a6-49f8-a5d7-5aec245c0de1}; !- Work Efficiency Schedule Name

OS:Space,
  {ec434682-2dde-4bc0-b21c-5de6658dd098}, !- Handle
  Perimeter_bot_ZN_2,                     !- Name
  {f5d04296-fc0f-4483-89a5-428db49a5174}, !- Space Type Name
  ,                                       !- Default Construction Set Name
  ,                                       !- Default Schedule Set Name
  0,                                      !- Direction of Relative North {deg}
  0,                                      !- X Origin {m}
  0,                                      !- Y Origin {m}
  0,                                      !- Z Origin {m}
  {a3a5d8c1-fffd-4e3a-9b89-c50609a074b2}, !- Building Story Name
  {b2763777-0123-4aa2-a91b-496dd9897eae}, !- Thermal Zone Name
  Yes,                                    !- Part of Total Floor Area
  {f788dbff-ecd3-48c7-9011-c535b7d168d2}; !- Design Specification Outdoor Air Object Name

OS:Schedule:Compact,
  {3897784a-5f4a-43a8-9272-db7061aba924}, !- Handle
  BLDG_OCC_SCH,                           !- Name
  {35dd823c-cbef-47aa-a3fb-4f2863a78d7c}, !- Schedule Type Limits Name
  Through: 12/31,                         !- Field 1
  For: SummerDesignDay,                   !- Field 2
  Until: 06:00,                           !- Field 3
  0.0,                                    !- Field 4
  Until: 22:00,                           !- Field 5
  1.0,                                    !- Field 6
  Until: 24:00,                           !- Field 7
  0.05,                                   !- Field 8
  For: Weekdays,                          !- Field 9
  Until: 06:00,                           !- Field 10
  0.0,                                    !- Field 11
  Until: 07:00,                           !- Field 12
  0.1,                                    !- Field 13
  Until: 08:00,                           !- Field 14
  0.2,                                    !- Field 15
  Until: 12:00,                           !- Field 16
  0.95,                                   !- Field 17
  Until: 13:00,                           !- Field 18
  0.5,                                    !- Field 19
  Until: 17:00,                           !- Field 20
  0.95,                                   !- Field 21
  Until: 18:00,                           !- Field 22
  0.7,                                    !- Field 23
  Until: 20:00,                           !- Field 24
  0.4,                                    !- Field 25
  Until: 22:00,                           !- Field 26
  0.1,                                    !- Field 27
  Until: 24:00,                           !- Field 28
  0.05,                                   !- Field 29
  For: Saturday,                          !- Field 30
  Until: 06:00,                           !- Field 31
  0.0,                                    !- Field 32
  Until: 08:00,                           !- Field 33
  0.1,                                    !- Field 34
  Until: 14:00,                           !- Field 35
  0.5,                                    !- Field 36
  Until: 17:00,                           !- Field 37
  0.1,                                    !- Field 38
  Until: 24:00,                           !- Field 39
  0.0,                                    !- Field 40
  For: AllOtherDays,                      !- Field 41
  Until: 24:00,                           !- Field 42
  0.0;                                    !- Field 43

OS:ScheduleTypeLimits,
  {35dd823c-cbef-47aa-a3fb-4f2863a78d7c}, !- Handle
  Fraction,                               !- Name
  0,                                      !- Lower Limit Value {BasedOnField A4}
  1,                                      !- Upper Limit Value {BasedOnField A4}
  CONTINUOUS;                             !- Numeric Type

OS:Schedule:Compact,
  {e1081bc2-6b17-4e9e-a170-81d1fd14fd0b}, !- Handle
  ACTIVITY_SCH,                           !- Name
  {8621b882-6ce1-482c-97bd-45c45e3be47e}, !- Schedule Type Limits Name
  Through: 12/31,                         !- Field 1
  For: AllDays,                           !- Field 2
  Until: 24:00,                           !- Field 3
  120;                                    !- Field 4

OS:ScheduleTypeLimits,
  {640e2341-8741-4512-95b8-a176a7c7259b}, !- Handle
  {025f5d55-d356-45f1-b170-e34c80295812}; !- Name

OS:ScheduleTypeLimits,
  {8621b882-6ce1-482c-97bd-45c45e3be47e}, !- Handle
  ActivityLevel,                          !- Name
  0,                                      !- Lower Limit Value {BasedOnField A4}
  ,                                       !- Upper Limit Value {BasedOnField A4}
  Continuous,                             !- Numeric Type
  ActivityLevel;                          !- Unit Type

OS:Schedule:Compact,
  {6f9a17d0-d7a6-49f8-a5d7-5aec245c0de1}, !- Handle
  WORK_EFF_SCH,                           !- Name
  {35dd823c-cbef-47aa-a3fb-4f2863a78d7c}, !- Schedule Type Limits Name
  Through: 12/31,                         !- Field 1
  For: AllDays,                           !- Field 2
  Until: 24:00,                           !- Field 3
  0.0;                                    !- Field 4

OS:Surface,
  {b4ac4e3b-477f-413b-a55b-3edd2b9f0e1c}, !- Handle
  MidFloor_Plenum_Floor_2,                !- Name
  Floor,                                  !- Surface Type
  {933ecd4c-4386-4958-9145-53fa393406b7}, !- Construction Name
  {a68ad510-43f2-4f78-bd74-57e6ebdbffe6}, !- Space Name
  Surface,                                !- Outside Boundary Condition
  {ba205f05-db49-410b-beca-0293d12b438d}, !- Outside Boundary Condition Object
  NoSun,                                  !- Sun Exposure
  NoWind,                                 !- Wind Exposure
  ,                                       !- View Factor to Ground
  ,                                       !- Number of Vertices
  73.1072, 48.7381, 22.56,                !- X,Y,Z Vertex 1 {m}
  73.1072, 0, 22.56,                      !- X,Y,Z Vertex 2 {m}
  68.534, 4.5732, 22.56,                  !- X,Y,Z Vertex 3 {m}
  68.534, 44.165, 22.56;                  !- X,Y,Z Vertex 4 {m}

OS:Space,
  {a68ad510-43f2-4f78-bd74-57e6ebdbffe6}, !- Handle
  MidFloor_Plenum,                        !- Name
  {f5d04296-fc0f-4483-89a5-428db49a5174}, !- Space Type Name
  ,                                       !- Default Construction Set Name
  ,                                       !- Default Schedule Set Name
  0,                                      !- Direction of Relative North {deg}
  0,                                      !- X Origin {m}
  0,                                      !- Y Origin {m}
  0,                                      !- Z Origin {m}
  {a3a5d8c1-fffd-4e3a-9b89-c50609a074b2}, !- Building Story Name
  {e2309537-0707-41e6-9bca-489ee493e5a0}, !- Thermal Zone Name
  No;                                     !- Part of Total Floor Area

OS:Building,
  {ad33635f-4923-4830-8e19-765c2913efaa}, !- Handle
  LargeOffice,                            !- Name
  ,                                       !- Building Sector Type
  0,                                      !- North Axis {deg}
  ,                                       !- Nominal Floor to Floor Height {m}
  ,                                       !- Space Type Name
  ,                                       !- Default Construction Set Name
  ;                                       !- Default Schedule Set Name

OS:SubSurface,
  {1bcc1fb4-758d-4ce8-8c20-f4fc08bde0fc}, !- Handle
  Perimeter_mid_ZN_2_Wall_East_Window,    !- Name
  FixedWindow,                            !- Sub Surface Type
  {1b969c25-570b-44c2-9b9b-052555dc54f0}, !- Construction Name
  {0c6666f7-0f8e-471b-94e3-bac87541c883}, !- Surface Name
  ,                                       !- Outside Boundary Condition Object
  ,                                       !- View Factor to Ground
  ,                                       !- Shading Control Name
  ,                                       !- Frame and Divider Name
  1,                                      !- Multiplier
  ,                                       !- Number of Vertices
  73.1072, 0, 22.316,                     !- X,Y,Z Vertex 1 {m}
  73.1072, 0, 20.7306,                    !- X,Y,Z Vertex 2 {m}
  73.1072, 48.738, 20.7306,               !- X,Y,Z Vertex 3 {m}
  73.1072, 48.738, 22.316;                !- X,Y,Z Vertex 4 {m}

OS:Construction,
  {1b969c25-570b-44c2-9b9b-052555dc54f0}, !- Handle
  Window Non-res Fixed,                   !- Name
  ,                                       !- Surface Rendering Name
  {74ff30c4-e840-4c1a-93a7-2b0430e4f014}; !- Layer 1

OS:WindowMaterial:SimpleGlazingSystem,
  {74ff30c4-e840-4c1a-93a7-2b0430e4f014}, !- Handle
  NonRes Fixed Assembly Window,           !- Name
  3.23646,                                !- U-Factor {W/m2-K}
  0.39;                                   !- Solar Heat Gain Coefficient

OS:Surface,
  {0c6666f7-0f8e-471b-94e3-bac87541c883}, !- Handle
  Perimeter_mid_ZN_2_Wall_East,           !- Name
  Wall,                                   !- Surface Type
  {47a23c25-5d40-4a8c-8e4d-1baecc6b29a3}, !- Construction Name
  {4b20e558-8235-4c5a-8c38-0bebfe09e3dc}, !- Space Name
  Outdoors,                               !- Outside Boundary Condition
  ,                                       !- Outside Boundary Condition Object
  SunExposed,                             !- Sun Exposure
  WindExposed,                            !- Wind Exposure
  ,                                       !- View Factor to Ground
  ,                                       !- Number of Vertices
  73.1072, 0, 22.56,                      !- X,Y,Z Vertex 1 {m}
  73.1072, 0, 19.816,                     !- X,Y,Z Vertex 2 {m}
  73.1072, 48.7381, 19.816,               !- X,Y,Z Vertex 3 {m}
  73.1072, 48.7381, 22.56;                !- X,Y,Z Vertex 4 {m}

OS:Construction,
  {47a23c25-5d40-4a8c-8e4d-1baecc6b29a3}, !- Handle
  Mass Non-res Ext Wall,                  !- Name
  ,                                       !- Surface Rendering Name
  {0043743f-42c6-4a73-a69f-e88424286334}, !- Layer 1
  {9e540d6b-fc5a-451c-9634-1d2ac424765c}, !- Layer 2
  {e85d708d-1b41-48ec-8796-ca840bb544b7}, !- Layer 3
  {57d59210-39dd-495b-b94c-fe71a8b719ca}; !- Layer 4

OS:Material,
  {9e540d6b-fc5a-451c-9634-1d2ac424765c}, !- Handle
  8IN CONCRETE HW,                        !- Name
  Rough,                                  !- Roughness
  0.2032,                                 !- Thickness {m}
  1.311,                                  !- Conductivity {W/m-K}
  2240,                                   !- Density {kg/m3}
  836.8,                                  !- Specific Heat {J/kg-K}
  0.9,                                    !- Thermal Absorptance
  0.7,                                    !- Solar Absorptance
  0.7;                                    !- Visible Absorptance

OS:Material,
  {e85d708d-1b41-48ec-8796-ca840bb544b7}, !- Handle
  Mass NonRes Wall Insulation,            !- Name
  MediumRough,                            !- Roughness
  0.0495494599433393,                     !- Thickness {m}
  0.049,                                  !- Conductivity {W/m-K}
  265,                                    !- Density {kg/m3}
  836.8,                                  !- Specific Heat {J/kg-K}
  0.9,                                    !- Thermal Absorptance
  0.7,                                    !- Solar Absorptance
  0.7;                                    !- Visible Absorptance

OS:Material,
  {57d59210-39dd-495b-b94c-fe71a8b719ca}, !- Handle
  1/2IN Gypsum,                           !- Name
  Smooth,                                 !- Roughness
  0.0127,                                 !- Thickness {m}
  0.16,                                   !- Conductivity {W/m-K}
  784.9,                                  !- Density {kg/m3}
  830,                                    !- Specific Heat {J/kg-K}
  0.9,                                    !- Thermal Absorptance
  0.92,                                   !- Solar Absorptance
  0.92;                                   !- Visible Absorptance

OS:Space,
  {4b20e558-8235-4c5a-8c38-0bebfe09e3dc}, !- Handle
  Perimeter_mid_ZN_2,                     !- Name
  {f5d04296-fc0f-4483-89a5-428db49a5174}, !- Space Type Name
  ,                                       !- Default Construction Set Name
  ,                                       !- Default Schedule Set Name
  0,                                      !- Direction of Relative North {deg}
  0,                                      !- X Origin {m}
  0,                                      !- Y Origin {m}
  0,                                      !- Z Origin {m}
  {a3a5d8c1-fffd-4e3a-9b89-c50609a074b2}, !- Building Story Name
  {b2763777-0123-4aa2-a91b-496dd9897eae}, !- Thermal Zone Name
  Yes,                                    !- Part of Total Floor Area
  {c021d6a2-d2da-4fe4-92db-f14695308e8c}; !- Design Specification Outdoor Air Object Name

OS:Space,
  {be97f8cc-135d-4573-8a40-4db06927a5d5}, !- Handle
  Perimeter_mid_ZN_1,                     !- Name
  {f5d04296-fc0f-4483-89a5-428db49a5174}, !- Space Type Name
  ,                                       !- Default Construction Set Name
  ,                                       !- Default Schedule Set Name
  0,                                      !- Direction of Relative North {deg}
  0,                                      !- X Origin {m}
  0,                                      !- Y Origin {m}
  0,                                      !- Z Origin {m}
  {a3a5d8c1-fffd-4e3a-9b89-c50609a074b2}, !- Building Story Name
  {8ac02765-811f-44e4-8a64-985afce94d85}, !- Thermal Zone Name
  Yes,                                    !- Part of Total Floor Area
  {6acf0ffd-ce09-45ce-a82c-22381c3251c6}; !- Design Specification Outdoor Air Object Name

OS:Timestep,
  {4a4a6c93-1422-41df-9044-651088f6ca08}, !- Handle
  6;                                      !- Number of Timesteps per Hour

OS:Surface,
  {1cd209cc-b4c1-45c4-a034-d4746b8df502}, !- Handle
  Basement_Wall_East,                     !- Name
  Wall,                                   !- Surface Type
  {52af265c-e51c-480e-b240-070c7fdf5fac}, !- Construction Name
  {1a9389d9-76c0-4358-a10c-35d61df3aa5e}, !- Space Name
  Ground,                                 !- Outside Boundary Condition
  ,                                       !- Outside Boundary Condition Object
  NoSun,                                  !- Sun Exposure
  NoWind,                                 !- Wind Exposure
  ,                                       !- View Factor to Ground
  ,                                       !- Number of Vertices
  73.1072, 0, 0,                          !- X,Y,Z Vertex 1 {m}
  73.1072, 0, -2.439,                     !- X,Y,Z Vertex 2 {m}
  73.1072, 48.7381, -2.439,               !- X,Y,Z Vertex 3 {m}
  73.1072, 48.7381, 0;                    !- X,Y,Z Vertex 4 {m}

OS:Construction,
  {52af265c-e51c-480e-b240-070c7fdf5fac}, !- Handle
  Underground Wall Non-res,               !- Name
  ,                                       !- Surface Rendering Name
  {9e540d6b-fc5a-451c-9634-1d2ac424765c}, !- Layer 1
  {6a57bdb3-b148-412a-a31a-5c600255232f}; !- Layer 2

OS:Material,
  {6a57bdb3-b148-412a-a31a-5c600255232f}, !- Handle
  UGWall NonRes Insulation,               !- Name
  MediumRough,                            !- Roughness
  0.0001,                                 !- Thickness {m}
  0.049,                                  !- Conductivity {W/m-K}
  265,                                    !- Density {kg/m3}
  836.8,                                  !- Specific Heat {J/kg-K}
  0.9,                                    !- Thermal Absorptance
  0.7,                                    !- Solar Absorptance
  0.7;                                    !- Visible Absorptance

OS:Space,
  {1a9389d9-76c0-4358-a10c-35d61df3aa5e}, !- Handle
  Basement,                               !- Name
  {fc61c3b2-b52f-474a-ab0f-1e7a8c7ed42e}, !- Space Type Name
  ,                                       !- Default Construction Set Name
  ,                                       !- Default Schedule Set Name
  0,                                      !- Direction of Relative North {deg}
  0,                                      !- X Origin {m}
  0.04,                                   !- Y Origin {m}
  0.2,                                    !- Z Origin {m}
  {b609173d-69cb-45b2-bf19-39c3a962a4d7}, !- Building Story Name
  {6130480a-5d68-4644-ba1b-37598cbf0886}, !- Thermal Zone Name
  Yes,                                    !- Part of Total Floor Area
  {535e4d89-5bec-4bb6-866d-02693899f6ac}; !- Design Specification Outdoor Air Object Name

OS:Surface,
  {8c796361-413c-4d2c-99ea-c38865605335}, !- Handle
  Perimeter_bot_ZN_1_Wall_East,           !- Name
  Wall,                                   !- Surface Type
  {358bf59e-23a0-4574-94c3-d1f0e89e2e2c}, !- Construction Name
  {da915a21-f6ff-4e13-a588-6eb2f9fc69e7}, !- Space Name
  Surface,                                !- Outside Boundary Condition
  {623ffbce-bcef-4372-804d-92eadd504adc}, !- Outside Boundary Condition Object
  NoSun,                                  !- Sun Exposure
  NoWind,                                 !- Wind Exposure
  ,                                       !- View Factor to Ground
  ,                                       !- Number of Vertices
  73.1072, 0, 2.744,                      !- X,Y,Z Vertex 1 {m}
  73.1072, 0, 0,                          !- X,Y,Z Vertex 2 {m}
  68.534, 4.5732, 0,                      !- X,Y,Z Vertex 3 {m}
  68.534, 4.5732, 2.744;                  !- X,Y,Z Vertex 4 {m}

OS:Construction,
  {358bf59e-23a0-4574-94c3-d1f0e89e2e2c}, !- Handle
  int-walls,                              !- Name
  ,                                       !- Surface Rendering Name
  {57d59210-39dd-495b-b94c-fe71a8b719ca}, !- Layer 1
  {57d59210-39dd-495b-b94c-fe71a8b719ca}; !- Layer 2

OS:Space,
  {da915a21-f6ff-4e13-a588-6eb2f9fc69e7}, !- Handle
  Perimeter_bot_ZN_1,                     !- Name
  {f5d04296-fc0f-4483-89a5-428db49a5174}, !- Space Type Name
  ,                                       !- Default Construction Set Name
  ,                                       !- Default Schedule Set Name
  0,                                      !- Direction of Relative North {deg}
  0,                                      !- X Origin {m}
  0,                                      !- Y Origin {m}
  0,                                      !- Z Origin {m}
  {a3a5d8c1-fffd-4e3a-9b89-c50609a074b2}, !- Building Story Name
  {8ac02765-811f-44e4-8a64-985afce94d85}, !- Thermal Zone Name
  Yes,                                    !- Part of Total Floor Area
  {37883022-2f06-4ac8-b400-6d689ad0ac23}; !- Design Specification Outdoor Air Object Name

OS:Surface,
  {26806de8-363d-4ae3-b487-5b0ec4cfab67}, !- Handle
  Perimeter_mid_ZN_4_Wall_West,           !- Name
  Wall,                                   !- Surface Type
  {47a23c25-5d40-4a8c-8e4d-1baecc6b29a3}, !- Construction Name
  {0724cd73-6d5a-4883-a26a-51d8e4afaaf2}, !- Space Name
  Outdoors,                               !- Outside Boundary Condition
  ,                                       !- Outside Boundary Condition Object
  SunExposed,                             !- Sun Exposure
  WindExposed,                            !- Wind Exposure
  ,                                       !- View Factor to Ground
  ,                                       !- Number of Vertices
  0, 48.7381, 22.56,                      !- X,Y,Z Vertex 1 {m}
  0, 48.7381, 19.816,                     !- X,Y,Z Vertex 2 {m}
  0, 0, 19.816,                           !- X,Y,Z Vertex 3 {m}