
OS:Version,
  {3ad9d165-e3a4-4f7e-97a5-3041284fe2a4}, !- Handle
  1.8.5;                                  !- Version Identifier

OS:Site,
  {95f730de-6749-47c2-b37e-f38e0ca2e499}, !- Handle
  USA IL-CHICAGO-OHARE,                   !- Name
  41.77,                                  !- Latitude {deg}
  -87.75,                                 !- Longitude {deg}
  -6,                                     !- Time Zone {hr}
  190,                                    !- Elevation {m}
  City;                                   !- Terrain

OS:SimulationControl,
  {76d9f367-bbe6-4bf1-a749-af53467daa77}, !- Handle
  Yes,                                    !- Do Zone Sizing Calculation
  Yes,                                    !- Do System Sizing Calculation
  Yes,                                    !- Do Plant Sizing Calculation
  No,                                     !- Run Simulation for Sizing Periods
  Yes,                                    !- Run Simulation for Weather File Run Periods
  0.04,                                   !- Loads Convergence Tolerance Value
  0.2,                                    !- Temperature Convergence Tolerance Value {deltaC}
  FullInteriorAndExterior,                !- Solar Distribution
  25,                                     !- Maximum Number of Warmup Days
  6;                                      !- Minimum Number of Warmup Days

OS:Surface,
  {8ed20868-4396-44c8-8797-3990adcdd1f7}, !- Handle
  Perimeter_bot_ZN_1_Floor,               !- Name
  Floor,                                  !- Surface Type
  {035aa311-0d64-4942-8e14-c4adb33dadb3}, !- Construction Name
  {06444826-c6b6-4e83-9143-9872a0643a43}, !- Space Name
  Ground,                                 !- Outside Boundary Condition
  ,                                       !- Outside Boundary Condition Object
  NoSun,                                  !- Sun Exposure
  NoWind,                                 !- Wind Exposure
  ,                                       !- View Factor to Ground
  ,                                       !- Number of Vertices
  45.3375, 4.5732, 0,                     !- X,Y,Z Vertex 1 {m}
  49.911, 0, 0,                           !- X,Y,Z Vertex 2 {m}
  0, 0, 0,                                !- X,Y,Z Vertex 3 {m}
  4.5732, 4.5732, 0;                      !- X,Y,Z Vertex 4 {m}

OS:Construction,
  {035aa311-0d64-4942-8e14-c4adb33dadb3}, !- Handle
  ext-slab,                               !- Name
  ,                                       !- Surface Rendering Name
  {8a612846-792a-4102-b3f3-8a16ad45dbbe}, !- Layer 1
  {5ae1b819-4003-41f9-aa73-7851e2a516dd}; !- Layer 2

OS:Material,
  {8a612846-792a-4102-b3f3-8a16ad45dbbe}, !- Handle
  HW CONCRETE,                            !- Name
  Rough,                                  !- Roughness
  0.1016,                                 !- Thickness {m}
  1.311,                                  !- Conductivity {W/m-K}
  2240,                                   !- Density {kg/m3}
  836.8,                                  !- Specific Heat {J/kg-K}
  0.9,                                    !- Thermal Absorptance
  0.7,                                    !- Solar Absorptance
  0.7;                                    !- Visible Absorptance

OS:Material:NoMass,
  {5ae1b819-4003-41f9-aa73-7851e2a516dd}, !- Handle
  CP02 CARPET PAD,                        !- Name
  VeryRough,                              !- Roughness
  0.2165,                                 !- Thermal Resistance {m2-K/W}
  0.9,                                    !- Thermal Absorptance
  0.7,                                    !- Solar Absorptance
  0.8;                                    !- Visible Absorptance

OS:Space,
  {06444826-c6b6-4e83-9143-9872a0643a43}, !- Handle
  Perimeter_bot_ZN_1,                     !- Name
  {aa46a148-239b-4dd7-995c-57462bbe9aa6}, !- Space Type Name
  ,                                       !- Default Construction Set Name
  ,                                       !- Default Schedule Set Name
  0,                                      !- Direction of Relative North {deg}
  0,                                      !- X Origin {m}
  0,                                      !- Y Origin {m}
  0,                                      !- Z Origin {m}
  {fde5ab13-87e5-40b3-92a0-5b433c824a9e}, !- Building Story Name
  {7777168b-5b87-41bf-b944-c5dfae09ebe1}, !- Thermal Zone Name
  Yes,                                    !- Part of Total Floor Area
  {038c41bf-0369-4a17-8c61-f5f5098fd5e8}; !- Design Specification Outdoor Air Object Name

OS:Schedule:Compact,
  {b0945db7-cf7a-41da-b798-661d77b292e4}, !- Handle
  HTGSETP_SCH,                            !- Name
  {77fa82f7-3a4b-4c81-b24a-b33e572ce0bd}, !- Schedule Type Limits Name
  Through: 12/31,                         !- Field 1
  For: Weekdays,                          !- Field 2
  Until: 06:00,                           !- Field 3
  15.6,                                   !- Field 4
  Until: 22:00,                           !- Field 5
  21.0,                                   !- Field 6
  Until: 24:00,                           !- Field 7
  15.6,                                   !- Field 8
  For SummerDesignDay,                    !- Field 9
  Until: 24:00,                           !- Field 10
  15.6,                                   !- Field 11
  For: Saturday,                          !- Field 12
  Until: 06:00,                           !- Field 13
  15.6,                                   !- Field 14
  Until: 18:00,                           !- Field 15
  21.0,                                   !- Field 16
  Until: 24:00,                           !- Field 17
  15.6,                                   !- Field 18
  For: WinterDesignDay,                   !- Field 19
  Until: 24:00,                           !- Field 20
  21.0,                                   !- Field 21
  For: AllOtherDays,                      !- Field 22
  Until: 24:00,                           !- Field 23
  15.6;                                   !- Field 24

OS:ScheduleTypeLimits,
  {77fa82f7-3a4b-4c81-b24a-b33e572ce0bd}, !- Handle
  Temperature,                            !- Name
  -60,                                    !- Lower Limit Value {BasedOnField A4}
  200,                                    !- Upper Limit Value {BasedOnField A4}
  CONTINUOUS,                             !- Numeric Type
  Temperature;                            !- Unit Type

OS:Schedule:Compact,
  {ee798c7d-ef02-4e47-89b5-8033f85caa35}, !- Handle
  CLGSETP_SCH,                            !- Name
  {77fa82f7-3a4b-4c81-b24a-b33e572ce0bd}, !- Schedule Type Limits Name
  Through: 12/31,                         !- Field 1
  For: Weekdays SummerDesignDay,          !- Field 2
  Until: 06:00,                           !- Field 3
  26.7,                                   !- Field 4
  Until: 22:00,                           !- Field 5
  24.0,                                   !- Field 6
  Until: 24:00,                           !- Field 7
  26.7,                                   !- Field 8
  For: Saturday,                          !- Field 9
  Until: 06:00,                           !- Field 10
  26.7,                                   !- Field 11
  Until: 18:00,                           !- Field 12
  24.0,                                   !- Field 13
  Until: 24:00,                           !- Field 14
  26.7,                                   !- Field 15
  For WinterDesignDay,                    !- Field 16
  Until: 24:00,                           !- Field 17
  26.7,                                   !- Field 18
  For: AllOtherDays,                      !- Field 19
  Until: 24:00,                           !- Field 20
  26.7;                                   !- Field 21

OS:SubSurface,
  {21e274fe-b92e-4b37-a350-e9cb343ff24c}, !- Handle
  Perimeter_top_ZN_3_Wall_North_Window,   !- Name
  FixedWindow,                            !- Sub Surface Type
  {ba208524-9544-477e-8f1a-e018caf9c15a}, !- Construction Name
  {864880a5-f294-42ca-b0b2-425ce29f0ac6}, !- Surface Name
  ,                                       !- Outside Boundary Condition Object
  ,                                       !- View Factor to Ground
  ,                                       !- Shading Control Name
  ,                                       !- Frame and Divider Name
  1,                                      !- Multiplier
  ,                                       !- Number of Vertices
  49.91, 33.2738, 10.2541,                !- X,Y,Z Vertex 1 {m}
  49.91, 33.2738, 8.9461,                 !- X,Y,Z Vertex 2 {m}
  0, 33.2738, 8.9461,                     !- X,Y,Z Vertex 3 {m}
  0, 33.2738, 10.2541;                    !- X,Y,Z Vertex 4 {m}

OS:Construction,
  {ba208524-9544-477e-8f1a-e018caf9c15a}, !- Handle
  Window Non-res Fixed,                   !- Name
  ,                                       !- Surface Rendering Name
  {ed1f505a-37af-46ec-9252-bbe7300afbe9}; !- Layer 1

OS:WindowMaterial:SimpleGlazingSystem,
  {ed1f505a-37af-46ec-9252-bbe7300afbe9}, !- Handle
  NonRes Fixed Assembly Window,           !- Name
  3.23646,                                !- U-Factor {W/m2-K}
  0.39;                                   !- Solar Heat Gain Coefficient

OS:Surface,
  {864880a5-f294-42ca-b0b2-425ce29f0ac6}, !- Handle
  Perimeter_top_ZN_3_Wall_North,          !- Name
  Wall,                                   !- Surface Type
  {3b9df49b-8dba-4e58-bc1e-572e7080e0e1}, !- Construction Name
  {7b70be8d-c46c-4b56-b533-db7da6ba9e72}, !- Space Name
  Outdoors,                               !- Outside Boundary Condition
  ,                                       !- Outside Boundary Condition Object
  SunExposed,                             !- Sun Exposure
  WindExposed,                            !- Wind Exposure
  ,                                       !- View Factor to Ground
  ,                                       !- Number of Vertices
  49.911, 33.2738, 10.668,                !- X,Y,Z Vertex 1 {m}
  49.911, 33.2738, 7.9248,                !- X,Y,Z Vertex 2 {m}
  0, 33.2738, 7.9248,                     !- X,Y,Z Vertex 3 {m}
  0, 33.2738, 10.668;                     !- X,Y,Z Vertex 4 {m}

OS:Construction,
  {3b9df49b-8dba-4e58-bc1e-572e7080e0e1}, !- Handle
  Steel Frame Non-res Ext Wall,           !- Name
  ,                                       !- Surface Rendering Name
  {46daa428-2e36-4d54-abe2-2adea8b4bd63}, !- Layer 1
  {f2eff92d-c547-4d50-8415-f910c75348e1}, !- Layer 2
  {caf680b6-2add-471c-b524-e6b24c9ba2ea}; !- Layer 3

OS:Material,
  {46daa428-2e36-4d54-abe2-2adea8b4bd63}, !- Handle
  Wood Siding,                            !- Name
  MediumSmooth,                           !- Roughness
  0.01,                                   !- Thickness {m}
  0.11,                                   !- Conductivity {W/m-K}
  544.62,                                 !- Density {kg/m3}
  1210,                                   !- Specific Heat {J/kg-K}
  0.9,                                    !- Thermal Absorptance
  0.78,                                   !- Solar Absorptance
  0.78;                                   !- Visible Absorptance

OS:Material,
  {f2eff92d-c547-4d50-8415-f910c75348e1}, !- Handle
  Steel Frame NonRes Wall Insulation,     !- Name
  MediumRough,                            !- Roughness
  0.0870564552646045,                     !- Thickness {m}
  0.049,                                  !- Conductivity {W/m-K}
  265,                                    !- Density {kg/m3}
  836.8,                                  !- Specific Heat {J/kg-K}
  0.9,                                    !- Thermal Absorptance
  0.7,                                    !- Solar Absorptance
  0.7;                                    !- Visible Absorptance

OS:Material,
  {caf680b6-2add-471c-b524-e6b24c9ba2ea}, !- Handle
  1/2IN Gypsum,                           !- Name
  Smooth,                                 !- Roughness
  0.0127,                                 !- Thickness {m}
  0.16,                                   !- Conductivity {W/m-K}
  784.9,                                  !- Density {kg/m3}
  830,                                    !- Specific Heat {J/kg-K}
  0.9,                                    !- Thermal Absorptance
  0.92,                                   !- Solar Absorptance
  0.92;                                   !- Visible Absorptance

OS:Space,
  {7b70be8d-c46c-4b56-b533-db7da6ba9e72}, !- Handle
  Perimeter_top_ZN_3,                     !- Name
  {aa46a148-239b-4dd7-995c-57462bbe9aa6}, !- Space Type Name
  ,                                       !- Default Construction Set Name
  ,                                       !- Default Schedule Set Name
  0,                                      !- Direction of Relative North {deg}
  0,                                      !- X Origin {m}
  0,                                      !- Y Origin {m}
  0,                                      !- Z Origin {m}
  {fde5ab13-87e5-40b3-92a0-5b433c824a9e}, !- Building Story Name
  {84eefe14-6c5b-4fed-93ed-5641e4324025}, !- Thermal Zone Name
  Yes,                                    !- Part of Total Floor Area
  {fbb2dcc2-562d-43e1-ae28-b16e172639d4}; !- Design Specification Outdoor Air Object Name

OS:Surface,
  {468caca0-3cac-41d7-bfd1-f4d5606e3335}, !- Handle
  Perimeter_top_ZN_1_Wall_East,           !- Name
  Wall,                                   !- Surface Type
  {b5bfc76f-6107-43a7-bfa2-eaf4f21ac9c3}, !- Construction Name
  {263b6a47-c2b8-40b6-aa52-7cbd047aae52}, !- Space Name
  Surface,                                !- Outside Boundary Condition
  {b5f2e636-eded-4e75-9700-cddc4c1465d0}, !- Outside Boundary Condition Object
  NoSun,                                  !- Sun Exposure
  NoWind,                                 !- Wind Exposure
  ,                                       !- View Factor to Ground
  ,                                       !- Number of Vertices
  49.911, 0, 10.668,                      !- X,Y,Z Vertex 1 {m}
  49.911, 0, 7.9248,                      !- X,Y,Z Vertex 2 {m}
  45.3375, 4.5732, 7.9248,                !- X,Y,Z Vertex 3 {m}
  45.3375, 4.5732, 10.668;                !- X,Y,Z Vertex 4 {m}

OS:Construction,
  {b5bfc76f-6107-43a7-bfa2-eaf4f21ac9c3}, !- Handle
  int-walls,                              !- Name
  ,                                       !- Surface Rendering Name
  {caf680b6-2add-471c-b524-e6b24c9ba2ea}, !- Layer 1
  {caf680b6-2add-471c-b524-e6b24c9ba2ea}; !- Layer 2

OS:Space,
  {263b6a47-c2b8-40b6-aa52-7cbd047aae52}, !- Handle
  Perimeter_top_ZN_1,                     !- Name
  {aa46a148-239b-4dd7-995c-57462bbe9aa6}, !- Space Type Name
  ,                                       !- Default Construction Set Name
  ,                                       !- Default Schedule Set Name
  0,                                      !- Direction of Relative North {deg}
  0,                                      !- X Origin {m}
  0,                                      !- Y Origin {m}
  0,                                      !- Z Origin {m}
  {fde5ab13-87e5-40b3-92a0-5b433c824a9e}, !- Building Story Name
  {7777168b-5b87-41bf-b944-c5dfae09ebe1}, !- Thermal Zone Name
  Yes,                                    !- Part of Total Floor Area
  {ff86ec56-e785-4ad4-a0b4-a8c5d537e558}; !- Design Specification Outdoor Air Object Name

OS:Schedule:Compact,
  {ea00d2c0-fb67-4afa-be42-10f522ef5d14}, !- Handle
  MinOA_MotorizedDamper_Sched,            !- Name
  {9983e3bf-8043-42f0-9005-66bb052c8713}, !- Schedule Type Limits Name
  Through: 12/31,                         !- Field 1
  For: Weekdays SummerDesignDay,          !- Field 2
  Until: 07:00,                           !- Field 3
  0.0,                                    !- Field 4
  Until: 22:00,                           !- Field 5
  1.0,                                    !- Field 6
  Until: 24:00,                           !- Field 7
  0.0,                                    !- Field 8
  For: Saturday WinterDesignDay,          !- Field 9
  Until: 07:00,                           !- Field 10
  0.0,                                    !- Field 11
  Until: 18:00,                           !- Field 12
  1.0,                                    !- Field 13
  Until: 24:00,                           !- Field 14
  0.0,                                    !- Field 15
  For: AllOtherDays,                      !- Field 16
  Until: 24:00,                           !- Field 17
  0.0;                                    !- Field 18

OS:ScheduleTypeLimits,
  {9983e3bf-8043-42f0-9005-66bb052c8713}, !- Handle
  Fraction,                               !- Name
  0,                                      !- Lower Limit Value {BasedOnField A4}
  1,                                      !- Upper Limit Value {BasedOnField A4}
  CONTINUOUS;                             !- Numeric Type

OS:Surface,
  {a7cae85b-e750-4bb5-95a8-e299f8c90e05}, !- Handle
  TopFloor_Plenum_Floor_1,                !- Name
  Floor,                                  !- Surface Type
  {5f726fe5-f604-4342-8b01-1bbd57285199}, !- Construction Name
  {758d7789-6eb5-41ef-9bbf-c3e22acb8a48}, !- Space Name
  Surface,                                !- Outside Boundary Condition
  {b8a1f6a8-4132-4c2e-b4c8-abb76d5d9a57}, !- Outside Boundary Condition Object
  NoSun,                                  !- Sun Exposure
  NoWind,                                 !- Wind Exposure
  ,                                       !- View Factor to Ground
  ,                                       !- Number of Vertices
  45.3375, 4.5732, 10.668,                !- X,Y,Z Vertex 1 {m}
  49.911, 0, 10.668,                      !- X,Y,Z Vertex 2 {m}
  0, 0, 10.668,                           !- X,Y,Z Vertex 3 {m}
  4.5732, 4.5732, 10.668;                 !- X,Y,Z Vertex 4 {m}

OS:Construction,
  {5f726fe5-f604-4342-8b01-1bbd57285199}, !- Handle
  DropCeiling,                            !- Name
  ,                                       !- Surface Rendering Name
  {4be4b9ec-c39f-487a-95d0-a7154201f6ac}; !- Layer 1

OS:Material,
  {4be4b9ec-c39f-487a-95d0-a7154201f6ac}, !- Handle
  Std AC02,                               !- Name
  MediumSmooth,                           !- Roughness
  0.0127,                                 !- Thickness {m}
  0.057,                                  !- Conductivity {W/m-K}
  288,                                    !- Density {kg/m3}
  1339,                                   !- Specific Heat {J/kg-K}
  0.9,                                    !- Thermal Absorptance
  0.7,                                    !- Solar Absorptance
  0.2;                                    !- Visible Absorptance

OS:Space,
  {758d7789-6eb5-41ef-9bbf-c3e22acb8a48}, !- Handle
  TopFloor_Plenum,                        !- Name
  {0ff999b1-bfd0-4c4b-9e64-6a09f22b7031}, !- Space Type Name
  ,                                       !- Default Construction Set Name
  ,                                       !- Default Schedule Set Name
  0,                                      !- Direction of Relative North {deg}
  0,                                      !- X Origin {m}
  0,                                      !- Y Origin {m}
  0,                                      !- Z Origin {m}
  {fde5ab13-87e5-40b3-92a0-5b433c824a9e}, !- Building Story Name
  ,                                       !- Thermal Zone Name
  No;                                     !- Part of Total Floor Area

OS:Surface,
  {fb011025-cdf7-4c0c-b39a-7881e79f14e5}, !- Handle
  Perimeter_mid_ZN_2_Ceiling,             !- Name
  RoofCeiling,                            !- Surface Type
  {5f726fe5-f604-4342-8b01-1bbd57285199}, !- Construction Name
  {35b6ba6f-b065-44a1-8945-7a54829d1698}, !- Space Name
  Surface,                                !- Outside Boundary Condition
  {61f2b573-b241-4a63-967a-66075bbd731b}, !- Outside Boundary Condition Object
  NoSun,                                  !- Sun Exposure
  NoWind,                                 !- Wind Exposure
  ,                                       !- View Factor to Ground
  ,                                       !- Number of Vertices
  49.911, 0, 6.7056,                      !- X,Y,Z Vertex 1 {m}
  49.911, 33.2738, 6.7056,                !- X,Y,Z Vertex 2 {m}
  45.3375, 28.7006, 6.7056,               !- X,Y,Z Vertex 3 {m}
  45.3375, 4.5732, 6.7056;                !- X,Y,Z Vertex 4 {m}

OS:Space,
  {35b6ba6f-b065-44a1-8945-7a54829d1698}, !- Handle
  Perimeter_mid_ZN_2,                     !- Name
  {aa46a148-239b-4dd7-995c-57462bbe9aa6}, !- Space Type Name
  ,                                       !- Default Construction Set Name
  ,                                       !- Default Schedule Set Name
  0,                                      !- Direction of Relative North {deg}
  0,                                      !- X Origin {m}
  0,                                      !- Y Origin {m}
  0,                                      !- Z Origin {m}
  {fde5ab13-87e5-40b3-92a0-5b433c824a9e}, !- Building Story Name
  {f2f263ed-9ab3-4055-9ff7-fc1cc4101e31}, !- Thermal Zone Name
  Yes,                                    !- Part of Total Floor Area
  {4b2af9ae-70b9-4ccf-8abc-9d5170b4a5ff}; !- Design Specification Outdoor Air Object Name

OS:Curve:Biquadratic,
  {e698c754-acb7-45bd-9e31-0f5cc505c57a}, !- Handle
  Measured_LowSpeedCoolEIRLSFT,           !- Name
  1.1389,                                 !- Coefficient1 Constant
  -0.04518,                               !- Coefficient2 x
  0.0014298,                              !- Coefficient3 x**2
  0.006044,                               !- Coefficient4 y
  0.0006745,                              !- Coefficient5 y**2
  -0.0012325,                             !- Coefficient6 x*y
  11.1,                                   !- Minimum Value of x {BasedOnField A2}
  29.4,                                   !- Maximum Value of x {BasedOnField A2}
  10,                                     !- Minimum Value of y {BasedOnField A3}
  50.3;                                   !- Maximum Value of y {BasedOnField A3}

OS:InternalMass:Definition,
  {a7ad6133-8508-40e2-a3e2-066d0f1794bc}, !- Handle
  Perimeter_top_ZN_1 Internal Mass Definition, !- Name
  {06492a31-7cb4-4653-ab12-2093ca4c2d4d}, !- Construction Name
  SurfaceArea,                            !- Design Level Calculation Method
  414.6763,                               !- Surface Area {m2}
  ,                                       !- Surface Area per Space Floor Area {dimensionless}
  ;                                       !- Surface Area per Person {m2/person}

OS:Construction,
  {06492a31-7cb4-4653-ab12-2093ca4c2d4d}, !- Handle
  InteriorFurnishings,                    !- Name
  ,                                       !- Surface Rendering Name
  {68316bfb-6d75-45cc-854c-c932883c8c56}; !- Layer 1

OS:Material,
  {68316bfb-6d75-45cc-854c-c932883c8c56}, !- Handle
  Std Wood 6inch,                         !- Name
  MediumSmooth,                           !- Roughness
  0.15,                                   !- Thickness {m}
  0.12,                                   !- Conductivity {W/m-K}
  540,                                    !- Density {kg/m3}
  1210,                                   !- Specific Heat {J/kg-K}
  0.9,                                    !- Thermal Absorptance
  0.7,                                    !- Solar Absorptance
  0.7;                                    !- Visible Absorptance

OS:InternalMass,
  {7c856469-b0a2-4d22-ac2d-e83f0933eab5}, !- Handle
  Perimeter_top_ZN_1 Internal Mass,       !- Name
  {a7ad6133-8508-40e2-a3e2-066d0f1794bc}, !- Internal Mass Definition Name
  {263b6a47-c2b8-40b6-aa52-7cbd047aae52}; !- Space or SpaceType Name

OS:Surface,
  {114ad5b5-6704-46e6-b763-e9618329382e}, !- Handle
  Perimeter_top_ZN_2_Wall_West,           !- Name
  Wall,                                   !- Surface Type
  {b5bfc76f-6107-43a7-bfa2-eaf4f21ac9c3}, !- Construction Name
  {9bdd7e28-a5f5-4c57-aa41-4a38f6c64f8f}, !- Space Name
  Surface,                                !- Outside Boundary Condition
  {91fe7059-b6b7-4e29-bada-0a9d0186e1e5}, !- Outside Boundary Condition Object
  NoSun,                                  !- Sun Exposure
  NoWind,                                 !- Wind Exposure
  ,                                       !- View Factor to Ground
  ,                                       !- Number of Vertices
  45.3375, 28.7006, 10.668,               !- X,Y,Z Vertex 1 {m}
  45.3375, 28.7006, 7.9248,               !- X,Y,Z Vertex 2 {m}
  45.3375, 4.5732, 7.9248,                !- X,Y,Z Vertex 3 {m}
  45.3375, 4.5732, 10.668;                !- X,Y,Z Vertex 4 {m}

OS:Space,
  {9bdd7e28-a5f5-4c57-aa41-4a38f6c64f8f}, !- Handle
  Perimeter_top_ZN_2,                     !- Name
  {aa46a148-239b-4dd7-995c-57462bbe9aa6}, !- Space Type Name
  ,                                       !- Default Construction Set Name
  ,                                       !- Default Schedule Set Name
  0,                                      !- Direction of Relative North {deg}
  0,                                      !- X Origin {m}
  0,                                      !- Y Origin {m}
  0,                                      !- Z Origin {m}
  {fde5ab13-87e5-40b3-92a0-5b433c824a9e}, !- Building Story Name
  {f2f263ed-9ab3-4055-9ff7-fc1cc4101e31}, !- Thermal Zone Name
  Yes,                                    !- Part of Total Floor Area
  {d2ec00cb-f362-4044-8190-b17f6b18965c}; !- Design Specification Outdoor Air Object Name

OS:DesignSpecification:OutdoorAir,
  {4b2af9ae-70b9-4ccf-8abc-9d5170b4a5ff}, !- Handle
  SZ DSOA Perimeter_mid_ZN_2,             !- Name
  ,                                       !- Outdoor Air Method
  0.0125,                                 !- Outdoor Air Flow per Person {m3/s-person}
  ,                                       !- Outdoor Air Flow per Floor Area {m3/s-m2}
  ,                                       !- Outdoor Air Flow Rate {m3/s}
  ,                                       !- Outdoor Air Flow Air Changes per Hour {1/hr}
  ;                                       !- Outdoor Air Flow Rate Fraction Schedule Name

OS:Surface,
  {8b9f95d7-608a-4af5-8a16-6285fcaf4f22}, !- Handle
  Perimeter_mid_ZN_3_Wall_North,          !- Name
  Wall,                                   !- Surface Type
  {3b9df49b-8dba-4e58-bc1e-572e7080e0e1}, !- Construction Name
  {895dddc8-0ea4-459a-9459-6af4eaa850fc}, !- Space Name
  Outdoors,                               !- Outside Boundary Condition
  ,                                       !- Outside Boundary Condition Object
  SunExposed,                             !- Sun Exposure
  WindExposed,                            !- Wind Exposure
  ,                                       !- View Factor to Ground
  ,                                       !- Number of Vertices
  49.911, 33.2738, 6.7056,                !- X,Y,Z Vertex 1 {m}
  49.911, 33.2738, 3.9624,                !- X,Y,Z Vertex 2 {m}
  0, 33.2738, 3.9624,                     !- X,Y,Z Vertex 3 {m}
  0, 33.2738, 6.7056;                     !- X,Y,Z Vertex 4 {m}

OS:Space,
  {895dddc8-0ea4-459a-9459-6af4eaa850fc}, !- Handle
  Perimeter_mid_ZN_3,                     !- Name
  {aa46a148-239b-4dd7-995c-57462bbe9aa6}, !- Space Type Name
  ,                                       !- Default Construction Set Name
  ,                                       !- Default Schedule Set Name
  0,                                      !- Direction of Relative North {deg}
  0,                                      !- X Origin {m}
  0,                                      !- Y Origin {m}
  0,                                      !- Z Origin {m}
  {fde5ab13-87e5-40b3-92a0-5b433c824a9e}, !- Building Story Name
  {84eefe14-6c5b-4fed-93ed-5641e4324025}, !- Thermal Zone Name
  Yes,                                    !- Part of Total Floor Area
  {f5cf3859-4edb-4ede-8110-bfdea2da4f43}; !- Design Specification Outdoor Air Object Name

OS:Surface,
  {8248841a-ce7e-4a49-88a8-9f0ef41d6dd3}, !- Handle
  MidFloor_Plenum_Ceiling_2,              !- Name
  RoofCeiling,                            !- Surface Type
  {0e6da5fd-6f36-4f31-a0fe-b4b7b1bce8da}, !- Construction Name
  {288b3606-95e5-4958-aa29-6cbd9c965d02}, !- Space Name
  Surface,                                !- Outside Boundary Condition
  {71f7d26a-3346-4053-b529-14c692a93b93}, !- Outside Boundary Condition Object
  NoSun,                                  !- Sun Exposure
  NoWind,                                 !- Wind Exposure
  ,                                       !- View Factor to Ground
  ,                                       !- Number of Vertices
  49.911, 0, 7.9248,                      !- X,Y,Z Vertex 1 {m}
  49.911, 33.2738, 7.9248,                !- X,Y,Z Vertex 2 {m}
  45.3375, 28.7006, 7.9248,               !- X,Y,Z Vertex 3 {m}
  45.3375, 4.5732, 7.9248;                !- X,Y,Z Vertex 4 {m}

OS:Construction,
  {0e6da5fd-6f36-4f31-a0fe-b4b7b1bce8da}, !- Handle
  INT-FLOOR-UNDERSIDE,                    !- Name
  ,                                       !- Surface Rendering Name
  {5ae1b819-4003-41f9-aa73-7851e2a516dd}, !- Layer 1
  {57d5d672-a3c5-450f-90fd-67b27fc1598f}; !- Layer 2

OS:Material,
  {57d5d672-a3c5-450f-90fd-67b27fc1598f}, !- Handle
  MAT-CC05 4 HW CONCRETE,                 !- Name
  Rough,                                  !- Roughness
  0.1016,                                 !- Thickness {m}
  1.311,                                  !- Conductivity {W/m-K}
  2240,                                   !- Density {kg/m3}
  836.8,                                  !- Specific Heat {J/kg-K}
  0.9,                                    !- Thermal Absorptance
  0.7,                                    !- Solar Absorptance
  0.7;                                    !- Visible Absorptance

OS:Space,
  {288b3606-95e5-4958-aa29-6cbd9c965d02}, !- Handle
  MidFloor_Plenum,                        !- Name
  {aa46a148-239b-4dd7-995c-57462bbe9aa6}, !- Space Type Name