
OS:Version,
  {79d5b214-2d35-4c56-9930-7441c63cd4f2}, !- Handle
  1.8.5;                                  !- Version Identifier

OS:Site,
  {6145d4bd-8f8b-4a7d-adb0-54baedda58b6}, !- Handle
  USA IL-CHICAGO-OHARE,                   !- Name
  41.77,                                  !- Latitude {deg}
  -87.75,                                 !- Longitude {deg}
  -6,                                     !- Time Zone {hr}
  190,                                    !- Elevation {m}
  City;                                   !- Terrain

OS:SimulationControl,
  {69a1fd2f-61da-4d66-a4be-1922fabfee34}, !- Handle
  Yes,                                    !- Do Zone Sizing Calculation
  Yes,                                    !- Do System Sizing Calculation
  Yes,                                    !- Do Plant Sizing Calculation
  No,                                     !- Run Simulation for Sizing Periods
  Yes,                                    !- Run Simulation for Weather File Run Periods
  0.04,                                   !- Loads Convergence Tolerance Value
  0.2,                                    !- Temperature Convergence Tolerance Value {deltaC}
  FullInteriorAndExterior,                !- Solar Distribution
  25,                                     !- Maximum Number of Warmup Days
  6;                                      !- Minimum Number of Warmup Days

OS:Space,
  {693e5c18-a653-4544-a2ff-20a093ab1d22}, !- Handle
  TopFloor_Plenum,                        !- Name
  {d681d802-6347-49ef-be49-8aa44285ca73}, !- Space Type Name
  ,                                       !- Default Construction Set Name
  ,                                       !- Default Schedule Set Name
  0,                                      !- Direction of Relative North {deg}
  0,                                      !- X Origin {m}
  0,                                      !- Y Origin {m}
  0,                                      !- Z Origin {m}
  {5c3f767e-f564-474c-aec4-46b2cdff972a}, !- Building Story Name
  ,                                       !- Thermal Zone Name
  No;                                     !- Part of Total Floor Area

OS:InternalMass:Definition,
  {917ad942-9f10-4d01-a4d2-9f90afa6a819}, !- Handle
  Perimeter_bot_ZN_3 Internal Mass Definition, !- Name
  {be70d6e8-05de-4adc-9f35-ae28dfb8c0c9}, !- Construction Name
  SurfaceArea,                            !- Design Level Calculation Method
  414.6763,                               !- Surface Area {m2}
  ,                                       !- Surface Area per Space Floor Area {dimensionless}
  ;                                       !- Surface Area per Person {m2/person}

OS:Construction,
  {be70d6e8-05de-4adc-9f35-ae28dfb8c0c9}, !- Handle
  InteriorFurnishings,                    !- Name
  ,                                       !- Surface Rendering Name
  {2d46b1d9-d3b8-4d87-b973-16b2daa8af16}; !- Layer 1

OS:Material,
  {2d46b1d9-d3b8-4d87-b973-16b2daa8af16}, !- Handle
  Std Wood 6inch,                         !- Name
  MediumSmooth,                           !- Roughness
  0.15,                                   !- Thickness {m}
  0.12,                                   !- Conductivity {W/m-K}
  540,                                    !- Density {kg/m3}
  1210,                                   !- Specific Heat {J/kg-K}
  0.9,                                    !- Thermal Absorptance
  0.7,                                    !- Solar Absorptance
  0.7;                                    !- Visible Absorptance

OS:InternalMass,
  {a9c8a0c9-6940-463e-ae8a-b88afa5b0aca}, !- Handle
  Perimeter_bot_ZN_3 Internal Mass,       !- Name
  {917ad942-9f10-4d01-a4d2-9f90afa6a819}, !- Internal Mass Definition Name
  {6e793d0a-04e6-4d37-a719-9cde33f3b839}; !- Space or SpaceType Name

OS:Space,
  {6e793d0a-04e6-4d37-a719-9cde33f3b839}, !- Handle
  Perimeter_bot_ZN_3,                     !- Name
  {58baa73a-ddf4-4e10-bda2-6bd781d187de}, !- Space Type Name
  ,                                       !- Default Construction Set Name
  ,                                       !- Default Schedule Set Name
  0,                                      !- Direction of Relative North {deg}
  0,                                      !- X Origin {m}
  0,                                      !- Y Origin {m}
  0,                                      !- Z Origin {m}
  {5c3f767e-f564-474c-aec4-46b2cdff972a}, !- Building Story Name
  {f5dc6093-5543-4bd9-842e-49ace604373a}, !- Thermal Zone Name
  Yes,                                    !- Part of Total Floor Area
  {5b84b223-157f-402d-a5d4-5f74797dc61f}; !- Design Specification Outdoor Air Object Name

OS:Schedule:Compact,
  {88f5f477-462f-4c75-ac13-0ba0cdad58d6}, !- Handle
  HTGSETP_SCH,                            !- Name
  {9d58e892-1159-447b-8014-c8ef04305529}, !- Schedule Type Limits Name
  Through: 12/31,                         !- Field 1
  For: Weekdays,                          !- Field 2
  Until: 06:00,                           !- Field 3
  15.6,                                   !- Field 4
  Until: 22:00,                           !- Field 5
  21.0,                                   !- Field 6
  Until: 24:00,                           !- Field 7
  15.6,                                   !- Field 8
  For SummerDesignDay,                    !- Field 9
  Until: 24:00,                           !- Field 10
  15.6,                                   !- Field 11
  For: Saturday,                          !- Field 12
  Until: 06:00,                           !- Field 13
  15.6,                                   !- Field 14
  Until: 18:00,                           !- Field 15
  21.0,                                   !- Field 16
  Until: 24:00,                           !- Field 17
  15.6,                                   !- Field 18
  For: WinterDesignDay,                   !- Field 19
  Until: 24:00,                           !- Field 20
  21.0,                                   !- Field 21
  For: AllOtherDays,                      !- Field 22
  Until: 24:00,                           !- Field 23
  15.6;                                   !- Field 24

OS:ScheduleTypeLimits,
  {9d58e892-1159-447b-8014-c8ef04305529}, !- Handle
  Temperature,                            !- Name
  -60,                                    !- Lower Limit Value {BasedOnField A4}
  200,                                    !- Upper Limit Value {BasedOnField A4}
  CONTINUOUS,                             !- Numeric Type
  Temperature;                            !- Unit Type

OS:Schedule:Compact,
  {6b0be1d0-4a48-4055-baa2-d18d8783811f}, !- Handle
  CLGSETP_SCH,                            !- Name
  {9d58e892-1159-447b-8014-c8ef04305529}, !- Schedule Type Limits Name
  Through: 12/31,                         !- Field 1
  For: Weekdays SummerDesignDay,          !- Field 2
  Until: 06:00,                           !- Field 3
  26.7,                                   !- Field 4
  Until: 22:00,                           !- Field 5
  24.0,                                   !- Field 6
  Until: 24:00,                           !- Field 7
  26.7,                                   !- Field 8
  For: Saturday,                          !- Field 9
  Until: 06:00,                           !- Field 10
  26.7,                                   !- Field 11
  Until: 18:00,                           !- Field 12
  24.0,                                   !- Field 13
  Until: 24:00,                           !- Field 14
  26.7,                                   !- Field 15
  For WinterDesignDay,                    !- Field 16
  Until: 24:00,                           !- Field 17
  26.7,                                   !- Field 18
  For: AllOtherDays,                      !- Field 19
  Until: 24:00,                           !- Field 20
  26.7;                                   !- Field 21

OS:Surface,
  {85825aa0-3fbf-40b1-9c60-593dc4316dfa}, !- Handle
  Perimeter_top_ZN_2_Floor,               !- Name
  Floor,                                  !- Surface Type
  {99c2f226-d786-4235-9cc8-70431e37ec78}, !- Construction Name
  {aff25b6d-0292-4391-853c-88a4b48b9be3}, !- Space Name
  Surface,                                !- Outside Boundary Condition
  {b1222f01-a648-4bb7-9827-c3befbe28aa7}, !- Outside Boundary Condition Object
  NoSun,                                  !- Sun Exposure
  NoWind,                                 !- Wind Exposure
  ,                                       !- View Factor to Ground
  ,                                       !- Number of Vertices
  49.911, 33.2738, 7.9248,                !- X,Y,Z Vertex 1 {m}
  49.911, 0, 7.9248,                      !- X,Y,Z Vertex 2 {m}
  45.3375, 4.5732, 7.9248,                !- X,Y,Z Vertex 3 {m}
  45.3375, 28.7006, 7.9248;               !- X,Y,Z Vertex 4 {m}

OS:Construction,
  {99c2f226-d786-4235-9cc8-70431e37ec78}, !- Handle
  INT-FLOOR-TOPSIDE,                      !- Name
  ,                                       !- Surface Rendering Name
  {5334b734-bc7d-432f-92fb-318388df5bfd}, !- Layer 1
  {aea02b05-6960-4699-ba83-6dfc6644c040}; !- Layer 2

OS:Material,
  {5334b734-bc7d-432f-92fb-318388df5bfd}, !- Handle
  MAT-CC05 4 HW CONCRETE,                 !- Name
  Rough,                                  !- Roughness
  0.1016,                                 !- Thickness {m}
  1.311,                                  !- Conductivity {W/m-K}
  2240,                                   !- Density {kg/m3}
  836.8,                                  !- Specific Heat {J/kg-K}
  0.9,                                    !- Thermal Absorptance
  0.7,                                    !- Solar Absorptance
  0.7;                                    !- Visible Absorptance

OS:Material:NoMass,
  {aea02b05-6960-4699-ba83-6dfc6644c040}, !- Handle
  CP02 CARPET PAD,                        !- Name
  VeryRough,                              !- Roughness
  0.2165,                                 !- Thermal Resistance {m2-K/W}
  0.9,                                    !- Thermal Absorptance
  0.7,                                    !- Solar Absorptance
  0.8;                                    !- Visible Absorptance

OS:Space,
  {aff25b6d-0292-4391-853c-88a4b48b9be3}, !- Handle
  Perimeter_top_ZN_2,                     !- Name
  {58baa73a-ddf4-4e10-bda2-6bd781d187de}, !- Space Type Name
  ,                                       !- Default Construction Set Name
  ,                                       !- Default Schedule Set Name
  0,                                      !- Direction of Relative North {deg}
  0,                                      !- X Origin {m}
  0,                                      !- Y Origin {m}
  0,                                      !- Z Origin {m}
  {5c3f767e-f564-474c-aec4-46b2cdff972a}, !- Building Story Name
  {e99f5f94-26e6-41a8-b90c-40b4d6750be8}, !- Thermal Zone Name
  Yes,                                    !- Part of Total Floor Area
  {eaa9b30d-154c-4178-ae99-17f88a677522}; !- Design Specification Outdoor Air Object Name

OS:Construction,
  {f2f69b62-a262-4a5b-aca3-d2e596d4dcb2}, !- Handle
  DropCeiling,                            !- Name
  ,                                       !- Surface Rendering Name
  {59d179bd-b4c9-4b1c-885f-8e161293b5c1}; !- Layer 1

OS:Material,
  {59d179bd-b4c9-4b1c-885f-8e161293b5c1}, !- Handle
  Std AC02,                               !- Name
  MediumSmooth,                           !- Roughness
  0.0127,                                 !- Thickness {m}
  0.057,                                  !- Conductivity {W/m-K}
  288,                                    !- Density {kg/m3}
  1339,                                   !- Specific Heat {J/kg-K}
  0.9,                                    !- Thermal Absorptance
  0.7,                                    !- Solar Absorptance
  0.2;                                    !- Visible Absorptance

OS:Surface,
  {5f9c472a-06e6-4bef-b83d-04a3e86b3241}, !- Handle
  Core_mid_ZN_5_Wall_East,                !- Name
  Wall,                                   !- Surface Type
  {b3fff4a5-df01-48ae-903a-6d3d13b1fc5e}, !- Construction Name
  {3e955711-6b53-44f3-9d0d-3ca2ca0b3fbd}, !- Space Name
  Surface,                                !- Outside Boundary Condition
  {3af34181-4a8d-463f-8074-218a8109c3ef}, !- Outside Boundary Condition Object
  NoSun,                                  !- Sun Exposure
  NoWind,                                 !- Wind Exposure
  ,                                       !- View Factor to Ground
  ,                                       !- Number of Vertices
  45.3375, 4.5732, 6.7056,                !- X,Y,Z Vertex 1 {m}
  45.3375, 4.5732, 3.9624,                !- X,Y,Z Vertex 2 {m}
  45.3375, 28.7006, 3.9624,               !- X,Y,Z Vertex 3 {m}
  45.3375, 28.7006, 6.7056;               !- X,Y,Z Vertex 4 {m}

OS:Construction,
  {b3fff4a5-df01-48ae-903a-6d3d13b1fc5e}, !- Handle
  int-walls,                              !- Name
  ,                                       !- Surface Rendering Name
  {4c5ce9cd-40ed-40e1-afe6-8e812ef3a82b}, !- Layer 1
  {4c5ce9cd-40ed-40e1-afe6-8e812ef3a82b}; !- Layer 2

OS:Material,
  {4c5ce9cd-40ed-40e1-afe6-8e812ef3a82b}, !- Handle
  1/2IN Gypsum,                           !- Name
  Smooth,                                 !- Roughness
  0.0127,                                 !- Thickness {m}
  0.16,                                   !- Conductivity {W/m-K}
  784.9,                                  !- Density {kg/m3}
  830,                                    !- Specific Heat {J/kg-K}
  0.9,                                    !- Thermal Absorptance
  0.92,                                   !- Solar Absorptance
  0.92;                                   !- Visible Absorptance

OS:Space,
  {3e955711-6b53-44f3-9d0d-3ca2ca0b3fbd}, !- Handle
  Core_mid,                               !- Name
  {58baa73a-ddf4-4e10-bda2-6bd781d187de}, !- Space Type Name
  ,                                       !- Default Construction Set Name
  ,                                       !- Default Schedule Set Name
  0,                                      !- Direction of Relative North {deg}
  0,                                      !- X Origin {m}
  0,                                      !- Y Origin {m}
  0,                                      !- Z Origin {m}
  {5c3f767e-f564-474c-aec4-46b2cdff972a}, !- Building Story Name
  {96269753-9e19-401a-8eca-7df0a142129f}, !- Thermal Zone Name
  Yes,                                    !- Part of Total Floor Area
  {f90813f8-1ba3-4393-9540-c93ce2a06e42}; !- Design Specification Outdoor Air Object Name

OS:Surface,
  {7b51bf5c-f7e3-4ead-a819-9a0f0563357f}, !- Handle
  TopFloor_Plenum_Floor_1,                !- Name
  Floor,                                  !- Surface Type
  {f2f69b62-a262-4a5b-aca3-d2e596d4dcb2}, !- Construction Name
  {693e5c18-a653-4544-a2ff-20a093ab1d22}, !- Space Name
  Surface,                                !- Outside Boundary Condition
  {29c41e1c-3e8d-4a27-9498-858be7e6c6c0}, !- Outside Boundary Condition Object
  NoSun,                                  !- Sun Exposure
  NoWind,                                 !- Wind Exposure
  ,                                       !- View Factor to Ground
  ,                                       !- Number of Vertices
  45.3375, 4.5732, 10.668,                !- X,Y,Z Vertex 1 {m}
  49.911, 0, 10.668,                      !- X,Y,Z Vertex 2 {m}
  0, 0, 10.668,                           !- X,Y,Z Vertex 3 {m}
  4.5732, 4.5732, 10.668;                 !- X,Y,Z Vertex 4 {m}

OS:Surface,
  {9def56a1-333e-4376-85af-d917ad026b48}, !- Handle
  Perimeter_top_ZN_2_Wall_South,          !- Name
  Wall,                                   !- Surface Type
  {b3fff4a5-df01-48ae-903a-6d3d13b1fc5e}, !- Construction Name
  {aff25b6d-0292-4391-853c-88a4b48b9be3}, !- Space Name
  Surface,                                !- Outside Boundary Condition
  {a2f4c597-7b05-498b-a7b2-fb6f7c6fc604}, !- Outside Boundary Condition Object
  NoSun,                                  !- Sun Exposure
  NoWind,                                 !- Wind Exposure
  ,                                       !- View Factor to Ground
  ,                                       !- Number of Vertices
  45.3375, 4.5732, 10.668,                !- X,Y,Z Vertex 1 {m}
  45.3375, 4.5732, 7.9248,                !- X,Y,Z Vertex 2 {m}
  49.911, 0, 7.9248,                      !- X,Y,Z Vertex 3 {m}
  49.911, 0, 10.668;                      !- X,Y,Z Vertex 4 {m}

OS:Meter,
  {37d75ee9-a12f-4aaa-af90-6f82367a70b1}, !- Handle
  Heating:Gas,                            !- Name
  hourly,                                 !- Reporting Frequency
  False,                                  !- Meter File Only
  False;                                  !- Cumulative

OS:Surface,
  {78d1cfc0-1878-4ab6-86dc-53d03ffc7a77}, !- Handle
  Perimeter_bot_ZN_2_Wall_West,           !- Name
  Wall,                                   !- Surface Type
  {b3fff4a5-df01-48ae-903a-6d3d13b1fc5e}, !- Construction Name
  {271e78e6-7db8-4e00-adb3-83f74d394cc1}, !- Space Name
  Surface,                                !- Outside Boundary Condition
  {b616d0bd-4334-454d-97ce-374da8200f9e}, !- Outside Boundary Condition Object
  NoSun,                                  !- Sun Exposure
  NoWind,                                 !- Wind Exposure
  ,                                       !- View Factor to Ground
  ,                                       !- Number of Vertices
  45.3375, 28.7006, 2.7432,               !- X,Y,Z Vertex 1 {m}
  45.3375, 28.7006, 0,                    !- X,Y,Z Vertex 2 {m}
  45.3375, 4.5732, 0,                     !- X,Y,Z Vertex 3 {m}
  45.3375, 4.5732, 2.7432;                !- X,Y,Z Vertex 4 {m}

OS:Space,
  {271e78e6-7db8-4e00-adb3-83f74d394cc1}, !- Handle
  Perimeter_bot_ZN_2,                     !- Name
  {58baa73a-ddf4-4e10-bda2-6bd781d187de}, !- Space Type Name
  ,                                       !- Default Construction Set Name
  ,                                       !- Default Schedule Set Name
  0,                                      !- Direction of Relative North {deg}
  0,                                      !- X Origin {m}
  0,                                      !- Y Origin {m}
  0,                                      !- Z Origin {m}
  {5c3f767e-f564-474c-aec4-46b2cdff972a}, !- Building Story Name
  {e99f5f94-26e6-41a8-b90c-40b4d6750be8}, !- Thermal Zone Name
  Yes,                                    !- Part of Total Floor Area
  {bf21c850-4e52-4c10-b07a-a6c251ee47a3}; !- Design Specification Outdoor Air Object Name

OS:Schedule:Compact,
  {b608705f-d353-48da-9c6f-fbbc4d80fbe7}, !- Handle
  BLDG_EQUIP_SCH,                         !- Name
  {b442d47c-de69-42d1-9757-7a9e9e543231}, !- Schedule Type Limits Name
  Through: 12/31,                         !- Field 1
  For: Weekdays,                          !- Field 2
  Until: 08:00,                           !- Field 3
  0.40,                                   !- Field 4
  Until: 12:00,                           !- Field 5
  0.90,                                   !- Field 6
  Until: 13:00,                           !- Field 7
  0.80,                                   !- Field 8
  Until: 17:00,                           !- Field 9
  0.90,                                   !- Field 10
  Until: 18:00,                           !- Field 11
  0.80,                                   !- Field 12
  Until: 20:00,                           !- Field 13
  0.60,                                   !- Field 14
  Until: 22:00,                           !- Field 15
  0.50,                                   !- Field 16
  Until: 24:00,                           !- Field 17
  0.40,                                   !- Field 18
  For: Saturday,                          !- Field 19
  Until: 06:00,                           !- Field 20
  0.30,                                   !- Field 21
  Until: 08:00,                           !- Field 22
  0.4,                                    !- Field 23
  Until: 14:00,                           !- Field 24
  0.5,                                    !- Field 25
  Until: 17:00,                           !- Field 26
  0.35,                                   !- Field 27
  Until: 24:00,                           !- Field 28
  0.30,                                   !- Field 29
  For: SummerDesignDay,                   !- Field 30
  Until: 24:00,                           !- Field 31
  1.0,                                    !- Field 32
  For: WinterDesignDay,                   !- Field 33
  Until: 24:00,                           !- Field 34
  0.0,                                    !- Field 35
  For: AllOtherDays,                      !- Field 36
  Until: 24:00,                           !- Field 37
  0.30;                                   !- Field 38

OS:ScheduleTypeLimits,
  {b442d47c-de69-42d1-9757-7a9e9e543231}, !- Handle
  Fraction,                               !- Name
  0,                                      !- Lower Limit Value {BasedOnField A4}
  1,                                      !- Upper Limit Value {BasedOnField A4}
  CONTINUOUS;                             !- Numeric Type

OS:Meter,
  {d77290cf-53ce-4b93-87ec-cfec560ba472}, !- Handle
  Cooling:Electricity,                    !- Name
  hourly,                                 !- Reporting Frequency
  False,                                  !- Meter File Only
  False;                                  !- Cumulative

OS:Schedule:Compact,
  {ddafa03e-43ec-4406-b129-32f55f283399}, !- Handle
  Water Equipment Latent fract sched,     !- Name
  {b442d47c-de69-42d1-9757-7a9e9e543231}, !- Schedule Type Limits Name
  Through: 12/31,                         !- Field 1
  For: AllDays,                           !- Field 2
  Until: 24:00,                           !- Field 3
  0.05;                                   !- Field 4

OS:Surface,
  {9997e76e-6ced-40c0-a578-72cab40f6052}, !- Handle
  Perimeter_bot_ZN_1_Wall_East,           !- Name
  Wall,                                   !- Surface Type
  {b3fff4a5-df01-48ae-903a-6d3d13b1fc5e}, !- Construction Name
  {d1d95eb6-de6b-4126-86f2-b9065079eb60}, !- Space Name
  Surface,                                !- Outside Boundary Condition
  {a5fb3490-c721-45f2-ad81-e89eb5107bef}, !- Outside Boundary Condition Object
  NoSun,                                  !- Sun Exposure
  NoWind,                                 !- Wind Exposure
  ,                                       !- View Factor to Ground
  ,                                       !- Number of Vertices
  49.911, 0, 2.7432,                      !- X,Y,Z Vertex 1 {m}
  49.911, 0, 0,                           !- X,Y,Z Vertex 2 {m}
  45.3375, 4.5732, 0,                     !- X,Y,Z Vertex 3 {m}
  45.3375, 4.5732, 2.7432;                !- X,Y,Z Vertex 4 {m}

OS:Space,
  {d1d95eb6-de6b-4126-86f2-b9065079eb60}, !- Handle
  Perimeter_bot_ZN_1,                     !- Name
  {58baa73a-ddf4-4e10-bda2-6bd781d187de}, !- Space Type Name
  ,                                       !- Default Construction Set Name
  ,                                       !- Default Schedule Set Name
  0,                                      !- Direction of Relative North {deg}
  0,                                      !- X Origin {m}
  0,                                      !- Y Origin {m}
  0,                                      !- Z Origin {m}
  {5c3f767e-f564-474c-aec4-46b2cdff972a}, !- Building Story Name
  {a0e77ae7-41c2-4cd0-a36d-af9fdd0d8f12}, !- Thermal Zone Name
  Yes,                                    !- Part of Total Floor Area
  {ab106dee-729d-4de0-b1e6-fe1a1282c5e5}; !- Design Specification Outdoor Air Object Name

OS:Surface,
  {9d4591e7-a3c0-4b7a-bd25-1177868b8ce6}, !- Handle
  Perimeter_top_ZN_2_Wall_West,           !- Name
  Wall,                                   !- Surface Type
  {b3fff4a5-df01-48ae-903a-6d3d13b1fc5e}, !- Construction Name
  {aff25b6d-0292-4391-853c-88a4b48b9be3}, !- Space Name
  Surface,                                !- Outside Boundary Condition
  {78d1f0af-28f2-4a19-95dd-c03ffdd1683c}, !- Outside Boundary Condition Object
  NoSun,                                  !- Sun Exposure
  NoWind,                                 !- Wind Exposure
  ,                                       !- View Factor to Ground
  ,                                       !- Number of Vertices
  45.3375, 28.7006, 10.668,               !- X,Y,Z Vertex 1 {m}
  45.3375, 28.7006, 7.9248,               !- X,Y,Z Vertex 2 {m}
  45.3375, 4.5732, 7.9248,                !- X,Y,Z Vertex 3 {m}
  45.3375, 4.5732, 10.668;                !- X,Y,Z Vertex 4 {m}

OS:Surface,
  {1dfd59f2-6fbf-4630-968a-b88b1ca400db}, !- Handle
  Perimeter_top_ZN_4_Wall_West,           !- Name
  Wall,                                   !- Surface Type
  {b8e7bade-592a-48e9-bab3-28307a686485}, !- Construction Name
  {02681465-7dad-469d-aafa-059ceb836f85}, !- Space Name
  Outdoors,                               !- Outside Boundary Condition
  ,                                       !- Outside Boundary Condition Object
  SunExposed,                             !- Sun Exposure
  WindExposed,                            !- Wind Exposure
  ,                                       !- View Factor to Ground
  ,                                       !- Number of Vertices
  0, 33.2738, 10.668,                     !- X,Y,Z Vertex 1 {m}
  0, 33.2738, 7.9248,                     !- X,Y,Z Vertex 2 {m}
  0, 0, 7.9248,                           !- X,Y,Z Vertex 3 {m}
  0, 0, 10.668;                           !- X,Y,Z Vertex 4 {m}

OS:Construction,
  {b8e7bade-592a-48e9-bab3-28307a686485}, !- Handle
  Steel Frame Non-res Ext Wall,           !- Name
  ,                                       !- Surface Rendering Name
  {b50e9de1-9fb8-4889-bb4d-dca4cd568ea9}, !- Layer 1
  {046dfbb2-fd73-48e2-b267-0dcdc9de0b3e}, !- Layer 2
  {4c5ce9cd-40ed-40e1-afe6-8e812ef3a82b}; !- Layer 3

OS:Material,
  {b50e9de1-9fb8-4889-bb4d-dca4cd568ea9}, !- Handle
  Wood Siding,                            !- Name
  MediumSmooth,                           !- Roughness
  0.01,                                   !- Thickness {m}
  0.11,                                   !- Conductivity {W/m-K}
  544.62,                                 !- Density {kg/m3}
  1210,                                   !- Specific Heat {J/kg-K}
  0.9,                                    !- Thermal Absorptance
  0.78,                                   !- Solar Absorptance
  0.78;                                   !- Visible Absorptance

OS:Material,
  {046dfbb2-fd73-48e2-b267-0dcdc9de0b3e}, !- Handle
  Steel Frame NonRes Wall Insulation,     !- Name
  MediumRough,                            !- Roughness
  0.0870564552646045,                     !- Thickness {m}
  0.049,                                  !- Conductivity {W/m-K}
  265,                                    !- Density {kg/m3}
  836.8,                                  !- Specific Heat {J/kg-K}
  0.9,                                    !- Thermal Absorptance
  0.7,                                    !- Solar Absorptance
  0.7;                                    !- Visible Absorptance

OS:Space,
  {02681465-7dad-469d-aafa-059ceb836f85}, !- Handle
  Perimeter_top_ZN_4,                     !- Name
  {58baa73a-ddf4-4e10-bda2-6bd781d187de}, !- Space Type Name
  ,                                       !- Default Construction Set Name
  ,                                       !- Default Schedule Set Name
  0,                                      !- Direction of Relative North {deg}
  0,                                      !- X Origin {m}
  0,                                      !- Y Origin {m}
  0,                                      !- Z Origin {m}
  {5c3f767e-f564-474c-aec4-46b2cdff972a}, !- Building Story Name
  {3771a60f-2de2-44c9-9930-96962c8dfd6b}, !- Thermal Zone Name
  Yes,                                    !- Part of Total Floor Area
  {b5ecd5ce-4dbf-4165-9109-8dba45f2ed23}; !- Design Specification Outdoor Air Object Name

OS:SubSurface,
  {fb61c6e2-3a23-4a25-bbb6-512272432197}, !- Handle
  Perimeter_mid_ZN_4_Wall_West_Window,    !- Name
  FixedWindow,                            !- Sub Surface Type
  {22e26999-1360-48d3-8c0c-96eea9915496}, !- Construction Name
  {0f0a75fe-d166-4cc9-aaf8-f69474688785}, !- Surface Name
  ,                                       !- Outside Boundary Condition Object
  ,                                       !- View Factor to Ground
  ,                                       !- Shading Control Name
  ,                                       !- Frame and Divider Name
  1,                                      !- Multiplier
  ,                                       !- Number of Vertices
  0, 33.2737, 6.2917,                     !- X,Y,Z Vertex 1 {m}
  0, 33.2737, 4.9837,                     !- X,Y,Z Vertex 2 {m}
  0, 0, 4.9837,                           !- X,Y,Z Vertex 3 {m}
  0, 0, 6.2917;                           !- X,Y,Z Vertex 4 {m}

OS:Construction,
  {22e26999-1360-48d3-8c0c-96eea9915496}, !- Handle
  Window Non-res Fixed,                   !- Name
  ,                                       !- Surface Rendering Name
  {3af644c9-32c5-451a-8e02-1bf14ce0373e}; !- Layer 1

OS:WindowMaterial:SimpleGlazingSystem,
  {3af644c9-32c5-451a-8e02-1bf14ce0373e}, !- Handle
  NonRes Fixed Assembly Window,           !- Name
  3.23646,                                !- U-Factor {W/m2-K}
  0.39;                                   !- Solar Heat Gain Coefficient

OS:Surface,
  {0f0a75fe-d166-4cc9-aaf8-f69474688785}, !- Handle
  Perimeter_mid_ZN_4_Wall_West,           !- Name
  Wall,                                   !- Surface Type
  {b8e7bade-592a-48e9-bab3-28307a686485}, !- Construction Name
  {4439ec52-4e60-406e-b38f-370b79b09adb}, !- Space Name
  Outdoors,                               !- Outside Boundary Condition
  ,                                       !- Outside Boundary Condition Object