
OS:Version,
  {9aa95cec-86ff-43fe-bc97-6d1335b5c71e}, !- Handle
  1.8.5;                                  !- Version Identifier

OS:Site,
  {ccc1ea5f-3d12-4934-9887-1cbed1784a3d}, !- Handle
  USA IL-CHICAGO-OHARE,                   !- Name
  41.77,                                  !- Latitude {deg}
  -87.75,                                 !- Longitude {deg}
  -6,                                     !- Time Zone {hr}
  190,                                    !- Elevation {m}
  City;                                   !- Terrain

OS:SimulationControl,
  {0f18610e-20b9-496d-ae53-9e1798cef4ad}, !- Handle
  Yes,                                    !- Do Zone Sizing Calculation
  Yes,                                    !- Do System Sizing Calculation
  Yes,                                    !- Do Plant Sizing Calculation
  No,                                     !- Run Simulation for Sizing Periods
  Yes,                                    !- Run Simulation for Weather File Run Periods
  0.04,                                   !- Loads Convergence Tolerance Value
  0.2,                                    !- Temperature Convergence Tolerance Value {deltaC}
  FullInteriorAndExterior,                !- Solar Distribution
  25,                                     !- Maximum Number of Warmup Days
  6;                                      !- Minimum Number of Warmup Days

OS:ElectricEquipment:Definition,
  {94757a79-df7b-4382-acfa-0537a4058a57}, !- Handle
  M N2 Apartment_PlugMisc_Equip Definition, !- Name
  Watts/Area,                             !- Design Level Calculation Method
  ,                                       !- Design Level {W}
  5.38,                                   !- Watts per Space Floor Area {W/m2}
  ,                                       !- Watts per Person {W/person}
  0,                                      !- Fraction Latent
  0.5,                                    !- Fraction Radiant
  0;                                      !- Fraction Lost

OS:ElectricEquipment,
  {a01ba2fa-af52-4a41-b6ee-2574c5ee31a3}, !- Handle
  M N2 Apartment_PlugMisc_Equip,          !- Name
  {94757a79-df7b-4382-acfa-0537a4058a57}, !- Electric Equipment Definition Name
  {9133dfe0-7c9a-4997-bd28-aed8e7f16c34}, !- Space or SpaceType Name
  {a5957562-3320-4c60-a449-57f5b419d44f}, !- Schedule Name
  ,                                       !- Multiplier
  General;                                !- End-Use Subcategory

OS:Space,
  {9133dfe0-7c9a-4997-bd28-aed8e7f16c34}, !- Handle
  M N2 Apartment,                         !- Name
  {aa7e7f5d-d43e-40fb-ad50-977f0842ce5d}, !- Space Type Name
  ,                                       !- Default Construction Set Name
  ,                                       !- Default Schedule Set Name
  0,                                      !- Direction of Relative North {deg}
  23.1637,                                !- X Origin {m}
  9.2959,                                 !- Y Origin {m}
  3.0478,                                 !- Z Origin {m}
  {472a08b0-a054-4a5a-b9e8-b0de7b8b6a6d}, !- Building Story Name
  {20fd4e01-fd72-4476-a544-dacf143639fa}, !- Thermal Zone Name
  Yes,                                    !- Part of Total Floor Area
  {f9d387ae-a2ac-4155-9bd5-2058b232d1ef}; !- Design Specification Outdoor Air Object Name

OS:Schedule:Compact,
  {5b760567-667f-4984-8f2a-ab458e5263db}, !- Handle
  APT_HTGSETP_SCH,                        !- Name
  {5b81ff0e-8c27-4d80-bc38-1cce3239d33b}, !- Schedule Type Limits Name
  THROUGH: 12/31,                         !- Field 1
  FOR:AllDays,                            !- Field 2
  UNTIL: 24:00,                           !- Field 3
  21.1;                                   !- Field 4

OS:ScheduleTypeLimits,
  {5b81ff0e-8c27-4d80-bc38-1cce3239d33b}, !- Handle
  Temperature,                            !- Name
  -60,                                    !- Lower Limit Value {BasedOnField A4}
  200,                                    !- Upper Limit Value {BasedOnField A4}
  CONTINUOUS,                             !- Numeric Type
  Temperature;                            !- Unit Type

OS:Schedule:Compact,
  {97670ced-f2e5-4a52-9946-5bc528f65b71}, !- Handle
  APT_CLGSETP_SCH,                        !- Name
  {5b81ff0e-8c27-4d80-bc38-1cce3239d33b}, !- Schedule Type Limits Name
  THROUGH: 12/31,                         !- Field 1
  FOR:AllDays,                            !- Field 2
  UNTIL: 24:00,                           !- Field 3
  23.9;                                   !- Field 4

OS:Schedule:Compact,
  {a5957562-3320-4c60-a449-57f5b419d44f}, !- Handle
  APT_EQP_SCH,                            !- Name
  {d34b971e-0a2e-4177-99cc-2e0245b04b4a}, !- Schedule Type Limits Name
  Through: 12/31,                         !- Field 1
  For: AllDays,                           !- Field 2
  Until: 1:00,                            !- Field 3
  0.45,                                   !- Field 4
  Until: 2:00,                            !- Field 5
  0.41,                                   !- Field 6
  Until: 3:00,                            !- Field 7
  0.39,                                   !- Field 8
  Until: 5:00,                            !- Field 9
  0.38,                                   !- Field 10
  Until: 6:00,                            !- Field 11
  0.43,                                   !- Field 12
  Until: 7:00,                            !- Field 13
  0.54,                                   !- Field 14
  Until: 8:00,                            !- Field 15
  0.65,                                   !- Field 16
  Until: 9:00,                            !- Field 17
  0.66,                                   !- Field 18
  Until: 10:00,                           !- Field 19
  0.67,                                   !- Field 20
  Until: 11:00,                           !- Field 21
  0.69,                                   !- Field 22
  Until: 12:00,                           !- Field 23
  0.70,                                   !- Field 24
  Until: 13:00,                           !- Field 25
  0.69,                                   !- Field 26
  Until: 14:00,                           !- Field 27
  0.66,                                   !- Field 28
  Until: 15:00,                           !- Field 29
  0.65,                                   !- Field 30
  Until: 16:00,                           !- Field 31
  0.68,                                   !- Field 32
  Until: 17:00,                           !- Field 33
  0.80,                                   !- Field 34
  Until: 19:00,                           !- Field 35
  1.0,                                    !- Field 36
  Until: 20:00,                           !- Field 37
  0.93,                                   !- Field 38
  Until: 21:00,                           !- Field 39
  0.89,                                   !- Field 40
  Until: 22:00,                           !- Field 41
  0.85,                                   !- Field 42
  Until: 23:00,                           !- Field 43
  0.71,                                   !- Field 44
  Until: 24:00,                           !- Field 45
  0.58;                                   !- Field 46

OS:ScheduleTypeLimits,
  {d34b971e-0a2e-4177-99cc-2e0245b04b4a}, !- Handle
  Fraction,                               !- Name
  0,                                      !- Lower Limit Value {BasedOnField A4}
  1,                                      !- Upper Limit Value {BasedOnField A4}
  CONTINUOUS;                             !- Numeric Type

OS:Surface,
  {3a2dcb8e-e325-401c-a726-c595e5aacd51}, !- Handle
  m SIWall N1A,                           !- Name
  Wall,                                   !- Surface Type
  {569c2043-be66-4782-ae95-c95b84bdf444}, !- Construction Name
  {ace57046-ad0c-4a47-b967-f52ccc1a9964}, !- Space Name
  Surface,                                !- Outside Boundary Condition
  {03051f13-b340-442b-a903-6f39c74ec541}, !- Outside Boundary Condition Object
  NoSun,                                  !- Sun Exposure
  NoWind,                                 !- Wind Exposure
  ,                                       !- View Factor to Ground
  ,                                       !- Number of Vertices
  0, 0, 3.0478,                           !- X,Y,Z Vertex 1 {m}
  0, 0, 0,                                !- X,Y,Z Vertex 2 {m}
  11.5818, 0, 0,                          !- X,Y,Z Vertex 3 {m}
  11.5818, 0, 3.0478;                     !- X,Y,Z Vertex 4 {m}

OS:Construction,
  {569c2043-be66-4782-ae95-c95b84bdf444}, !- Handle
  int-walls,                              !- Name
  ,                                       !- Surface Rendering Name
  {157a93a0-5baf-4bf3-909a-5be46332793c}, !- Layer 1
  {157a93a0-5baf-4bf3-909a-5be46332793c}; !- Layer 2

OS:Material,
  {157a93a0-5baf-4bf3-909a-5be46332793c}, !- Handle
  1/2IN Gypsum,                           !- Name
  Smooth,                                 !- Roughness
  0.0127,                                 !- Thickness {m}
  0.16,                                   !- Conductivity {W/m-K}
  784.9,                                  !- Density {kg/m3}
  830,                                    !- Specific Heat {J/kg-K}
  0.9,                                    !- Thermal Absorptance
  0.92,                                   !- Solar Absorptance
  0.92;                                   !- Visible Absorptance

OS:Space,
  {ace57046-ad0c-4a47-b967-f52ccc1a9964}, !- Handle
  M N1 Apartment,                         !- Name
  {aa7e7f5d-d43e-40fb-ad50-977f0842ce5d}, !- Space Type Name
  ,                                       !- Default Construction Set Name
  ,                                       !- Default Schedule Set Name
  0,                                      !- Direction of Relative North {deg}
  11.5818,                                !- X Origin {m}
  9.2959,                                 !- Y Origin {m}
  3.0478,                                 !- Z Origin {m}
  {472a08b0-a054-4a5a-b9e8-b0de7b8b6a6d}, !- Building Story Name
  {20fd4e01-fd72-4476-a544-dacf143639fa}, !- Thermal Zone Name
  Yes,                                    !- Part of Total Floor Area
  {800ee3dc-a87d-4175-8b7b-47ac002f4d87}; !- Design Specification Outdoor Air Object Name

OS:SubSurface,
  {43cec860-4e34-4023-8fcf-a237aee95760}, !- Handle
  GWindow9,                               !- Name
  FixedWindow,                            !- Sub Surface Type
  {6138e6ec-c35c-496a-baed-b3f9279b9cb6}, !- Construction Name
  {66c510e9-b8ba-4eff-8fe4-621609001337}, !- Surface Name
  ,                                       !- Outside Boundary Condition Object
  ,                                       !- View Factor to Ground
  ,                                       !- Shading Control Name
  ,                                       !- Frame and Divider Name
  1,                                      !- Multiplier
  ,                                       !- Number of Vertices
  7.924, 7.6196, 2.1731,                  !- X,Y,Z Vertex 1 {m}
  7.924, 7.6196, 0.954,                   !- X,Y,Z Vertex 2 {m}
  3.657, 7.6196, 0.954,                   !- X,Y,Z Vertex 3 {m}
  3.657, 7.6196, 2.1731;                  !- X,Y,Z Vertex 4 {m}

OS:Construction,
  {6138e6ec-c35c-496a-baed-b3f9279b9cb6}, !- Handle
  Window Res Operable,                    !- Name
  ,                                       !- Surface Rendering Name
  {7c73f7a9-ef85-4111-a2af-10c7379c087a}; !- Layer 1

OS:WindowMaterial:SimpleGlazingSystem,
  {7c73f7a9-ef85-4111-a2af-10c7379c087a}, !- Handle
  Res Operable Assembly Window,           !- Name
  3.80426,                                !- U-Factor {W/m2-K}
  0.39;                                   !- Solar Heat Gain Coefficient

OS:Surface,
  {66c510e9-b8ba-4eff-8fe4-621609001337}, !- Handle
  g NWall N1A,                            !- Name
  Wall,                                   !- Surface Type
  {8592877e-b743-4c84-aaec-7845173eeb13}, !- Construction Name
  {6a3ac394-a4a3-4cfb-9775-9ad4f6ed868f}, !- Space Name
  Outdoors,                               !- Outside Boundary Condition
  ,                                       !- Outside Boundary Condition Object
  SunExposed,                             !- Sun Exposure
  WindExposed,                            !- Wind Exposure
  ,                                       !- View Factor to Ground
  ,                                       !- Number of Vertices
  11.5818, 7.6196, 3.0478,                !- X,Y,Z Vertex 1 {m}
  11.5818, 7.6196, 0,                     !- X,Y,Z Vertex 2 {m}
  0, 7.6196, 0,                           !- X,Y,Z Vertex 3 {m}
  0, 7.6196, 3.0478;                      !- X,Y,Z Vertex 4 {m}

OS:Construction,
  {8592877e-b743-4c84-aaec-7845173eeb13}, !- Handle
  Steel Frame Res Ext Wall,               !- Name
  ,                                       !- Surface Rendering Name
  {6ea462bb-4127-46d1-8a14-c6606cf213cf}, !- Layer 1
  {d70698dd-c994-43f9-929d-937916160db5}, !- Layer 2
  {157a93a0-5baf-4bf3-909a-5be46332793c}; !- Layer 3

OS:Material,
  {6ea462bb-4127-46d1-8a14-c6606cf213cf}, !- Handle
  Wood Siding,                            !- Name
  MediumSmooth,                           !- Roughness
  0.01,                                   !- Thickness {m}
  0.11,                                   !- Conductivity {W/m-K}
  544.62,                                 !- Density {kg/m3}
  1210,                                   !- Specific Heat {J/kg-K}
  0.9,                                    !- Thermal Absorptance
  0.78,                                   !- Solar Absorptance
  0.78;                                   !- Visible Absorptance

OS:Material,
  {d70698dd-c994-43f9-929d-937916160db5}, !- Handle
  Steel Frame Res Wall Insulation,        !- Name
  MediumRough,                            !- Roughness
  0.119161363096001,                      !- Thickness {m}
  0.049,                                  !- Conductivity {W/m-K}
  265,                                    !- Density {kg/m3}
  836.8,                                  !- Specific Heat {J/kg-K}
  0.9,                                    !- Thermal Absorptance
  0.7,                                    !- Solar Absorptance
  0.7;                                    !- Visible Absorptance

OS:Space,
  {6a3ac394-a4a3-4cfb-9775-9ad4f6ed868f}, !- Handle
  G N1 Apartment,                         !- Name
  {aa7e7f5d-d43e-40fb-ad50-977f0842ce5d}, !- Space Type Name
  ,                                       !- Default Construction Set Name
  ,                                       !- Default Schedule Set Name
  0,                                      !- Direction of Relative North {deg}
  11.5818,                                !- X Origin {m}
  9.2959,                                 !- Y Origin {m}
  0,                                      !- Z Origin {m}
  {6e058394-f8e2-4a59-b108-cbcdc2a55341}, !- Building Story Name
  {6c23ccbd-f209-4a62-96fb-026a4efa9524}, !- Thermal Zone Name
  Yes,                                    !- Part of Total Floor Area
  {8bd01bcd-a9ec-468a-b2c0-fadf10aac99f}; !- Design Specification Outdoor Air Object Name

OS:Surface,
  {30aa309b-d858-44f3-8b18-500c20698d89}, !- Handle
  t Roof SEA,                             !- Name
  RoofCeiling,                            !- Surface Type
  {35418ad2-98ce-469a-b370-593a68f44d26}, !- Construction Name
  {b3900a53-26de-46d6-8766-e3b2ef18a69a}, !- Space Name
  Outdoors,                               !- Outside Boundary Condition
  ,                                       !- Outside Boundary Condition Object
  SunExposed,                             !- Sun Exposure
  WindExposed,                            !- Wind Exposure
  ,                                       !- View Factor to Ground
  ,                                       !- Number of Vertices
  11.5818, 0, 3.0478,                     !- X,Y,Z Vertex 1 {m}
  11.5818, 7.6196, 3.0478,                !- X,Y,Z Vertex 2 {m}
  0, 7.6196, 3.0478,                      !- X,Y,Z Vertex 3 {m}
  0, 0, 3.0478;                           !- X,Y,Z Vertex 4 {m}

OS:Construction,
  {35418ad2-98ce-469a-b370-593a68f44d26}, !- Handle
  IEAD Res Roof,                          !- Name
  ,                                       !- Surface Rendering Name
  {78f77b6b-ad1f-413b-aa49-95bb3554f08d}, !- Layer 1
  {93a4b2a7-56de-4cce-893a-03927611b872}, !- Layer 2
  {b12b48e1-3bc8-48dc-a389-689d442828ee}; !- Layer 3

OS:Material,
  {78f77b6b-ad1f-413b-aa49-95bb3554f08d}, !- Handle
  Roof Membrane,                          !- Name
  VeryRough,                              !- Roughness
  0.0095,                                 !- Thickness {m}
  0.16,                                   !- Conductivity {W/m-K}
  1121.29,                                !- Density {kg/m3}
  1460,                                   !- Specific Heat {J/kg-K}
  0.9,                                    !- Thermal Absorptance
  0.7,                                    !- Solar Absorptance
  0.7;                                    !- Visible Absorptance

OS:Material,
  {93a4b2a7-56de-4cce-893a-03927611b872}, !- Handle
  IEAD Res Roof Insulation,               !- Name
  MediumRough,                            !- Roughness
  0.127338688569477,                      !- Thickness {m}
  0.049,                                  !- Conductivity {W/m-K}
  265,                                    !- Density {kg/m3}
  836.8,                                  !- Specific Heat {J/kg-K}
  0.9,                                    !- Thermal Absorptance
  0.7,                                    !- Solar Absorptance
  0.7;                                    !- Visible Absorptance

OS:Material,
  {b12b48e1-3bc8-48dc-a389-689d442828ee}, !- Handle
  Metal Decking,                          !- Name
  MediumSmooth,                           !- Roughness
  0.0015,                                 !- Thickness {m}
  45.006,                                 !- Conductivity {W/m-K}
  7680,                                   !- Density {kg/m3}
  418.4,                                  !- Specific Heat {J/kg-K}
  0.9,                                    !- Thermal Absorptance
  0.7,                                    !- Solar Absorptance
  0.3;                                    !- Visible Absorptance

OS:Space,
  {b3900a53-26de-46d6-8766-e3b2ef18a69a}, !- Handle
  T SE Apartment,                         !- Name
  {aa7e7f5d-d43e-40fb-ad50-977f0842ce5d}, !- Space Type Name
  ,                                       !- Default Construction Set Name
  ,                                       !- Default Schedule Set Name
  0,                                      !- Direction of Relative North {deg}
  34.7455,                                !- X Origin {m}
  0,                                      !- Y Origin {m}
  9.1435,                                 !- Z Origin {m}
  {25fd1b4c-bbf0-44cf-bdff-182b29d3be8d}, !- Building Story Name
  {661619b2-887b-4094-9104-258474cf0929}, !- Thermal Zone Name
  Yes,                                    !- Part of Total Floor Area
  {ea8abd78-dc90-447a-abea-dfdaf751957e}; !- Design Specification Outdoor Air Object Name

OS:Surface,
  {37e3cc06-6dd6-4a28-b506-9040633f11be}, !- Handle
  m Wall 6,                               !- Name
  Wall,                                   !- Surface Type
  {569c2043-be66-4782-ae95-c95b84bdf444}, !- Construction Name
  {e0f56800-a579-4ddc-8202-1568d758fb8a}, !- Space Name
  Surface,                                !- Outside Boundary Condition
  {737bb3e5-c81c-45c6-a2e3-40d6bfc59449}, !- Outside Boundary Condition Object
  NoSun,                                  !- Sun Exposure
  NoWind,                                 !- Wind Exposure
  ,                                       !- View Factor to Ground
  ,                                       !- Number of Vertices
  34.7455, 1.6763, 3.0478,                !- X,Y,Z Vertex 1 {m}
  34.7455, 1.6763, 0,                     !- X,Y,Z Vertex 2 {m}
  23.1636, 1.6763, 0,                     !- X,Y,Z Vertex 3 {m}
  23.1636, 1.6763, 3.0478;                !- X,Y,Z Vertex 4 {m}

OS:Space,
  {e0f56800-a579-4ddc-8202-1568d758fb8a}, !- Handle
  M Corridor,                             !- Name
  {9a7cd210-76da-4d41-a661-346eecb32dc9}, !- Space Type Name
  ,                                       !- Default Construction Set Name
  ,                                       !- Default Schedule Set Name
  0,                                      !- Direction of Relative North {deg}
  0,                                      !- X Origin {m}
  7.6196,                                 !- Y Origin {m}
  3.0478,                                 !- Z Origin {m}
  {472a08b0-a054-4a5a-b9e8-b0de7b8b6a6d}, !- Building Story Name
  {22a8e2fd-a0e4-4dd0-b16c-3f6ba8afb296}, !- Thermal Zone Name
  Yes,                                    !- Part of Total Floor Area
  {51e225ca-61f3-4c27-b1a9-6823504b419c}; !- Design Specification Outdoor Air Object Name

OS:ThermostatSetpoint:DualSetpoint,
  {49d7b8f3-4c32-40cd-a614-340370533578}, !- Handle
  {9fbdd3d4-c806-4e75-9581-0824be5f6ea3}, !- Name
  {cdfe3fd4-0cde-401c-86b0-126a8be09f09}, !- Heating Setpoint Temperature Schedule Name
  {e7510a24-fae9-4470-b11a-ca6c45399a6f}; !- Cooling Setpoint Temperature Schedule Name

OS:Schedule:Compact,
  {cdfe3fd4-0cde-401c-86b0-126a8be09f09}, !- Handle
  UnitHeater_HtgSP_Sch,                   !- Name
  {5b81ff0e-8c27-4d80-bc38-1cce3239d33b}, !- Schedule Type Limits Name
  THROUGH: 12/31,                         !- Field 1
  FOR:AllDays,                            !- Field 2
  UNTIL: 24:00,                           !- Field 3
  15.6;                                   !- Field 4

OS:Schedule:Compact,
  {e7510a24-fae9-4470-b11a-ca6c45399a6f}, !- Handle
  UnitHeater_ClgSP_Sch,                   !- Name
  {5b81ff0e-8c27-4d80-bc38-1cce3239d33b}, !- Schedule Type Limits Name
  THROUGH: 12/31,                         !- Field 1
  FOR:AllDays,                            !- Field 2
  UNTIL: 24:00,                           !- Field 3
  40;                                     !- Field 4

OS:Surface,
  {012d34e7-4893-4c64-97e4-db31ff38db21}, !- Handle
  m NIWall SEA,                           !- Name
  Wall,                                   !- Surface Type
  {569c2043-be66-4782-ae95-c95b84bdf444}, !- Construction Name
  {b90e5edf-ef73-4977-9986-cd8b367d1a25}, !- Space Name
  Surface,                                !- Outside Boundary Condition
  {5590efe7-d4eb-4abc-8175-6c88e7f33864}, !- Outside Boundary Condition Object
  NoSun,                                  !- Sun Exposure
  NoWind,                                 !- Wind Exposure
  ,                                       !- View Factor to Ground
  ,                                       !- Number of Vertices
  11.5818, 7.6196, 3.0478,                !- X,Y,Z Vertex 1 {m}
  11.5818, 7.6196, 0,                     !- X,Y,Z Vertex 2 {m}
  0, 7.6196, 0,                           !- X,Y,Z Vertex 3 {m}
  0, 7.6196, 3.0478;                      !- X,Y,Z Vertex 4 {m}

OS:Space,
  {b90e5edf-ef73-4977-9986-cd8b367d1a25}, !- Handle
  M SE Apartment,                         !- Name
  {aa7e7f5d-d43e-40fb-ad50-977f0842ce5d}, !- Space Type Name
  ,                                       !- Default Construction Set Name
  ,                                       !- Default Schedule Set Name
  0,                                      !- Direction of Relative North {deg}
  34.7455,                                !- X Origin {m}
  0,                                      !- Y Origin {m}
  3.0478,                                 !- Z Origin {m}
  {472a08b0-a054-4a5a-b9e8-b0de7b8b6a6d}, !- Building Story Name
  {8856e26a-3049-4848-9bfd-2bb81b1a03fc}, !- Thermal Zone Name
  Yes,                                    !- Part of Total Floor Area
  {66693ebb-bb2d-4322-ad99-eddc2c83a7d7}; !- Design Specification Outdoor Air Object Name

OS:Lights:Definition,
  {d89689b1-d5d8-4e63-940c-3160c93f1ab1}, !- Handle
  T NW Apartment_Lights Definition,       !- Name
  Watts/Area,                             !- Design Level Calculation Method
  ,                                       !- Lighting Level {W}
  3.88,                                   !- Watts per Space Floor Area {W/m2}
  ,                                       !- Watts per Person {W/person}
  0.7,                                    !- Fraction Radiant
  0.2,                                    !- Fraction Visible
  0,                                      !- Return Air Fraction
  No;                                     !- Return Air Fraction Calculated from Plenum Temperature

OS:Lights,
  {f5d4c0b0-f013-4fae-b070-91318c07cf97}, !- Handle
  T NW Apartment_Lights,                  !- Name
  {d89689b1-d5d8-4e63-940c-3160c93f1ab1}, !- Lights Definition Name
  {bb033304-04de-4a9c-ab20-774a57db71a7}, !- Space or SpaceType Name
  {e0ac94d0-c629-4874-864a-8afc9e839333}, !- Schedule Name
  1,                                      !- Fraction Replaceable
  ,                                       !- Multiplier
  General;                                !- End-Use Subcategory

OS:Space,
  {bb033304-04de-4a9c-ab20-774a57db71a7}, !- Handle
  T NW Apartment,                         !- Name
  {aa7e7f5d-d43e-40fb-ad50-977f0842ce5d}, !- Space Type Name
  ,                                       !- Default Construction Set Name
  ,                                       !- Default Schedule Set Name
  0,                                      !- Direction of Relative North {deg}
  0,                                      !- X Origin {m}
  9.2959,                                 !- Y Origin {m}
  9.1435,                                 !- Z Origin {m}
  {25fd1b4c-bbf0-44cf-bdff-182b29d3be8d}, !- Building Story Name
  {43e43cee-9eeb-4b89-b201-db4ca69aa294}, !- Thermal Zone Name
  Yes,                                    !- Part of Total Floor Area
  {d1762e9e-8d9c-4612-b158-085e75873eeb}; !- Design Specification Outdoor Air Object Name

OS:Schedule:Compact,
  {e0ac94d0-c629-4874-864a-8afc9e839333}, !- Handle
  APT_LIGHT_SCH,                          !- Name
  {d34b971e-0a2e-4177-99cc-2e0245b04b4a}, !- Schedule Type Limits Name
  Through: 12/31,                         !- Field 1
  For: AllDays,                           !- Field 2
  Until: 04:00,                           !- Field 3
  0.067,                                  !- Field 4
  Until: 05:00,                           !- Field 5
  0.187,                                  !- Field 6
  Until: 06:00,                           !- Field 7
  0.394,                                  !- Field 8
  Until: 07:00,                           !- Field 9
  0.440,                                  !- Field 10
  Until: 08:00,                           !- Field 11
  0.393,                                  !- Field 12
  Until: 09:00,                           !- Field 13
  0.172,                                  !- Field 14
  Until: 15:00,                           !- Field 15
  0.119,                                  !- Field 16
  Until: 16:00,                           !- Field 17
  0.206,                                  !- Field 18
  Until: 17:00,                           !- Field 19
  0.439,                                  !- Field 20
  Until: 18:00,                           !- Field 21
  0.616,                                  !- Field 22
  Until: 19:00,                           !- Field 23
  0.829,                                  !- Field 24
  Until: 20:00,                           !- Field 25
  0.986,                                  !- Field 26
  Until: 21:00,                           !- Field 27
  1.0,                                    !- Field 28
  Until: 22:00,                           !- Field 29
  0.692,                                  !- Field 30
  Until: 23:00,                           !- Field 31
  0.384,                                  !- Field 32
  Until: 24:00,                           !- Field 33
  0.160;                                  !- Field 34

OS:Surface,
  {b1d07a3a-5fa6-499e-bb90-88342a92c951}, !- Handle
  m WWall NWA,                            !- Name
  Wall,                                   !- Surface Type
  {8592877e-b743-4c84-aaec-7845173eeb13}, !- Construction Name
  {df1bec38-a741-4f01-b471-5dbc63340284}, !- Space Name
  Outdoors,                               !- Outside Boundary Condition
  ,                                       !- Outside Boundary Condition Object
  SunExposed,                             !- Sun Exposure
  WindExposed,                            !- Wind Exposure
  ,                                       !- View Factor to Ground
  ,                                       !- Number of Vertices
  0, 7.6196, 3.0478,                      !- X,Y,Z Vertex 1 {m}
  0, 7.6196, 0,                           !- X,Y,Z Vertex 2 {m}
  0, 0, 0,                                !- X,Y,Z Vertex 3 {m}
  0, 0, 3.0478;                           !- X,Y,Z Vertex 4 {m}

OS:Space,
  {df1bec38-a741-4f01-b471-5dbc63340284}, !- Handle
  M NW Apartment,                         !- Name
  {aa7e7f5d-d43e-40fb-ad50-977f0842ce5d}, !- Space Type Name
  ,                                       !- Default Construction Set Name
  ,                                       !- Default Schedule Set Name
  0,                                      !- Direction of Relative North {deg}
  0,                                      !- X Origin {m}
  9.2959,                                 !- Y Origin {m}
  3.0478,                                 !- Z Origin {m}
  {472a08b0-a054-4a5a-b9e8-b0de7b8b6a6d}, !- Building Story Name
  {20fd4e01-fd72-4476-a544-dacf143639fa}, !- Thermal Zone Name
  Yes,                                    !- Part of Total Floor Area
  {2dcbcd1c-219b-4f5d-8547-39e3f658b532}; !- Design Specification Outdoor Air Object Name

OS:Lights:Definition,
  {a4ef01a5-8d16-4ab7-bc5f-b145dd2d0ad6}, !- Handle
  M NW Apartment_Lights Definition,       !- Name
  Watts/Area,                             !- Design Level Calculation Method