
OS:Version,
  {97db3c95-76f3-4a27-9048-3469952ea810}, !- Handle
  1.8.5;                                  !- Version Identifier

OS:Site,
  {47019e15-1704-4b61-a0f9-f22e6bfc7afa}, !- Handle
  USA IL-CHICAGO-OHARE,                   !- Name
  41.77,                                  !- Latitude {deg}
  -87.75,                                 !- Longitude {deg}
  -6,                                     !- Time Zone {hr}
  190,                                    !- Elevation {m}
  City;                                   !- Terrain

OS:SimulationControl,
  {52817984-3141-443c-9940-4ed0adaa147a}, !- Handle
  Yes,                                    !- Do Zone Sizing Calculation
  Yes,                                    !- Do System Sizing Calculation
  Yes,                                    !- Do Plant Sizing Calculation
  No,                                     !- Run Simulation for Sizing Periods
  Yes,                                    !- Run Simulation for Weather File Run Periods
  0.04,                                   !- Loads Convergence Tolerance Value
  0.2,                                    !- Temperature Convergence Tolerance Value {deltaC}
  FullInteriorAndExterior,                !- Solar Distribution
  25,                                     !- Maximum Number of Warmup Days
  6;                                      !- Minimum Number of Warmup Days

OS:SubSurface,
  {00aa329a-3a37-4725-afad-c61fcd5d0640}, !- Handle
  GWindow11,                              !- Name
  FixedWindow,                            !- Sub Surface Type
  {1e9b623e-ef09-4e44-bed3-ea53e80cf257}, !- Construction Name
  {48f70e9d-ce69-4f77-a98f-f6aeab311873}, !- Surface Name
  ,                                       !- Outside Boundary Condition Object
  ,                                       !- View Factor to Ground
  ,                                       !- Shading Control Name
  ,                                       !- Frame and Divider Name
  1,                                      !- Multiplier
  ,                                       !- Number of Vertices
  3.657, 0, 2.1731,                       !- X,Y,Z Vertex 1 {m}
  3.657, 0, 0.954,                        !- X,Y,Z Vertex 2 {m}
  7.924, 0, 0.954,                        !- X,Y,Z Vertex 3 {m}
  7.924, 0, 2.1731;                       !- X,Y,Z Vertex 4 {m}

OS:Construction,
  {1e9b623e-ef09-4e44-bed3-ea53e80cf257}, !- Handle
  Window Res Operable,                    !- Name
  ,                                       !- Surface Rendering Name
  {7da897f9-8374-4a65-b460-a33661584f91}; !- Layer 1

OS:WindowMaterial:SimpleGlazingSystem,
  {7da897f9-8374-4a65-b460-a33661584f91}, !- Handle
  Res Operable Assembly Window,           !- Name
  3.80426,                                !- U-Factor {W/m2-K}
  0.39;                                   !- Solar Heat Gain Coefficient

OS:Surface,
  {48f70e9d-ce69-4f77-a98f-f6aeab311873}, !- Handle
  g SWall S1A,                            !- Name
  Wall,                                   !- Surface Type
  {1407d9bc-f965-4909-94ab-4271850dadb0}, !- Construction Name
  {6a9bf497-4035-4d37-9166-01c6c70f8e50}, !- Space Name
  Outdoors,                               !- Outside Boundary Condition
  ,                                       !- Outside Boundary Condition Object
  SunExposed,                             !- Sun Exposure
  WindExposed,                            !- Wind Exposure
  ,                                       !- View Factor to Ground
  ,                                       !- Number of Vertices
  0, 0, 3.0478,                           !- X,Y,Z Vertex 1 {m}
  0, 0, 0,                                !- X,Y,Z Vertex 2 {m}
  11.5818, 0, 0,                          !- X,Y,Z Vertex 3 {m}
  11.5818, 0, 3.0478;                     !- X,Y,Z Vertex 4 {m}

OS:Construction,
  {1407d9bc-f965-4909-94ab-4271850dadb0}, !- Handle
  Steel Frame Res Ext Wall,               !- Name
  ,                                       !- Surface Rendering Name
  {991ba11d-b317-494e-bdfc-e8d61ed72003}, !- Layer 1
  {f0fe72b6-8ce0-4349-bfde-da7429159447}, !- Layer 2
  {427572bc-246a-430c-b262-ade1b38fc04c}; !- Layer 3

OS:Material,
  {991ba11d-b317-494e-bdfc-e8d61ed72003}, !- Handle
  Wood Siding,                            !- Name
  MediumSmooth,                           !- Roughness
  0.01,                                   !- Thickness {m}
  0.11,                                   !- Conductivity {W/m-K}
  544.62,                                 !- Density {kg/m3}
  1210,                                   !- Specific Heat {J/kg-K}
  0.9,                                    !- Thermal Absorptance
  0.78,                                   !- Solar Absorptance
  0.78;                                   !- Visible Absorptance

OS:Material,
  {f0fe72b6-8ce0-4349-bfde-da7429159447}, !- Handle
  Steel Frame Res Wall Insulation,        !- Name
  MediumRough,                            !- Roughness
  0.119161363096001,                      !- Thickness {m}
  0.049,                                  !- Conductivity {W/m-K}
  265,                                    !- Density {kg/m3}
  836.8,                                  !- Specific Heat {J/kg-K}
  0.9,                                    !- Thermal Absorptance
  0.7,                                    !- Solar Absorptance
  0.7;                                    !- Visible Absorptance

OS:Material,
  {427572bc-246a-430c-b262-ade1b38fc04c}, !- Handle
  1/2IN Gypsum,                           !- Name
  Smooth,                                 !- Roughness
  0.0127,                                 !- Thickness {m}
  0.16,                                   !- Conductivity {W/m-K}
  784.9,                                  !- Density {kg/m3}
  830,                                    !- Specific Heat {J/kg-K}
  0.9,                                    !- Thermal Absorptance
  0.92,                                   !- Solar Absorptance
  0.92;                                   !- Visible Absorptance

OS:Space,
  {6a9bf497-4035-4d37-9166-01c6c70f8e50}, !- Handle
  G S1 Apartment,                         !- Name
  {beee26bd-68fb-4128-a349-93cc713b073a}, !- Space Type Name
  ,                                       !- Default Construction Set Name
  ,                                       !- Default Schedule Set Name
  0,                                      !- Direction of Relative North {deg}
  11.5818,                                !- X Origin {m}
  0,                                      !- Y Origin {m}
  0,                                      !- Z Origin {m}
  {c459906b-8923-4abb-a5ad-59be794f85a5}, !- Building Story Name
  {655a6ba6-3a4a-48a8-9cb6-5c8e4413926b}, !- Thermal Zone Name
  Yes,                                    !- Part of Total Floor Area
  {dbba5b3c-b141-4fe0-9466-25d67896fc2b}; !- Design Specification Outdoor Air Object Name

OS:Schedule:Compact,
  {8afc9657-3204-4603-9256-9a4e0090637a}, !- Handle
  APT_HTGSETP_SCH,                        !- Name
  {75a232ad-8086-4dc9-a40b-d00e71f52666}, !- Schedule Type Limits Name
  THROUGH: 12/31,                         !- Field 1
  FOR:AllDays,                            !- Field 2
  UNTIL: 24:00,                           !- Field 3
  21.1;                                   !- Field 4

OS:ScheduleTypeLimits,
  {75a232ad-8086-4dc9-a40b-d00e71f52666}, !- Handle
  Temperature,                            !- Name
  -60,                                    !- Lower Limit Value {BasedOnField A4}
  200,                                    !- Upper Limit Value {BasedOnField A4}
  CONTINUOUS,                             !- Numeric Type
  Temperature;                            !- Unit Type

OS:Schedule:Compact,
  {81b1facc-0fcb-4cf4-b1ff-0fca76eb9df3}, !- Handle
  APT_CLGSETP_SCH,                        !- Name
  {75a232ad-8086-4dc9-a40b-d00e71f52666}, !- Schedule Type Limits Name
  THROUGH: 12/31,                         !- Field 1
  FOR:AllDays,                            !- Field 2
  UNTIL: 24:00,                           !- Field 3
  23.9;                                   !- Field 4

OS:Surface,
  {0001fc62-d0cd-47aa-81f8-992501c0d457}, !- Handle
  g GFloor N2A,                           !- Name
  Floor,                                  !- Surface Type
  {7193eeef-987e-4a79-aac2-a099477c3823}, !- Construction Name
  {d3cc99a1-1a1a-415c-a4b7-623ed8a87270}, !- Space Name
  Ground,                                 !- Outside Boundary Condition
  ,                                       !- Outside Boundary Condition Object
  NoSun,                                  !- Sun Exposure
  NoWind,                                 !- Wind Exposure
  ,                                       !- View Factor to Ground
  ,                                       !- Number of Vertices
  11.5818, 7.6196, 0,                     !- X,Y,Z Vertex 1 {m}
  11.5818, 0, 0,                          !- X,Y,Z Vertex 2 {m}
  0, 0, 0,                                !- X,Y,Z Vertex 3 {m}
  0, 7.6196, 0;                           !- X,Y,Z Vertex 4 {m}

OS:Construction,
  {7193eeef-987e-4a79-aac2-a099477c3823}, !- Handle
  ext-slab,                               !- Name
  ,                                       !- Surface Rendering Name
  {9f245fcc-60d4-429b-962e-a7460b1969e7}, !- Layer 1
  {499e61a4-e167-40a1-920e-f00260c4e4f0}; !- Layer 2

OS:Material,
  {9f245fcc-60d4-429b-962e-a7460b1969e7}, !- Handle
  HW CONCRETE,                            !- Name
  Rough,                                  !- Roughness
  0.1016,                                 !- Thickness {m}
  1.311,                                  !- Conductivity {W/m-K}
  2240,                                   !- Density {kg/m3}
  836.8,                                  !- Specific Heat {J/kg-K}
  0.9,                                    !- Thermal Absorptance
  0.7,                                    !- Solar Absorptance
  0.7;                                    !- Visible Absorptance

OS:Material:NoMass,
  {499e61a4-e167-40a1-920e-f00260c4e4f0}, !- Handle
  CP02 CARPET PAD,                        !- Name
  VeryRough,                              !- Roughness
  0.2165,                                 !- Thermal Resistance {m2-K/W}
  0.9,                                    !- Thermal Absorptance
  0.7,                                    !- Solar Absorptance
  0.8;                                    !- Visible Absorptance

OS:Space,
  {d3cc99a1-1a1a-415c-a4b7-623ed8a87270}, !- Handle
  G N2 Apartment,                         !- Name
  {beee26bd-68fb-4128-a349-93cc713b073a}, !- Space Type Name
  ,                                       !- Default Construction Set Name
  ,                                       !- Default Schedule Set Name
  0,                                      !- Direction of Relative North {deg}
  23.1637,                                !- X Origin {m}
  9.2959,                                 !- Y Origin {m}
  0,                                      !- Z Origin {m}
  {c459906b-8923-4abb-a5ad-59be794f85a5}, !- Building Story Name
  {a679203d-6533-4bb5-9aa5-fab7fd5ef2ce}, !- Thermal Zone Name
  Yes,                                    !- Part of Total Floor Area
  {2e6d20e3-cd86-4f78-82ed-0db9863e879a}; !- Design Specification Outdoor Air Object Name

OS:Space,
  {fc4495bd-6eff-486d-b55c-2b3b59c641d3}, !- Handle
  T S1 Apartment,                         !- Name
  {beee26bd-68fb-4128-a349-93cc713b073a}, !- Space Type Name
  ,                                       !- Default Construction Set Name
  ,                                       !- Default Schedule Set Name
  0,                                      !- Direction of Relative North {deg}
  11.5818,                                !- X Origin {m}
  0,                                      !- Y Origin {m}
  9.1435,                                 !- Z Origin {m}
  {77f7565a-c46c-433b-9c80-01b7864dbd17}, !- Building Story Name
  {2e91aa4a-ebda-4ec4-be78-2d75da4c7bfc}, !- Thermal Zone Name
  Yes,                                    !- Part of Total Floor Area
  {a10c9a3d-63a3-4215-9877-504f1c38330b}; !- Design Specification Outdoor Air Object Name

OS:DesignSpecification:OutdoorAir,
  {a10c9a3d-63a3-4215-9877-504f1c38330b}, !- Handle
  SZ DSOA T S1 Apartment,                 !- Name
  ,                                       !- Outdoor Air Method
  ,                                       !- Outdoor Air Flow per Person {m3/s-person}
  ,                                       !- Outdoor Air Flow per Floor Area {m3/s-m2}
  0.04248,                                !- Outdoor Air Flow Rate {m3/s}
  ,                                       !- Outdoor Air Flow Air Changes per Hour {1/hr}
  ;                                       !- Outdoor Air Flow Rate Fraction Schedule Name

OS:SpaceInfiltration:DesignFlowRate,
  {c517726b-57c9-43da-a6ae-9b476986f627}, !- Handle
  M Corridor_Infiltration,                !- Name
  {d7710bf5-c50f-4592-be9d-fee5fa2f471d}, !- Space or SpaceType Name
  {515ffcc1-4d32-4d01-97b6-14814e3f7c33}, !- Schedule Name
  Flow/ExteriorArea,                      !- Design Flow Rate Calculation Method
  ,                                       !- Design Flow Rate {m3/s}
  ,                                       !- Flow per Space Floor Area {m3/s-m2}
  0.000302,                               !- Flow per Exterior Surface Area {m3/s-m2}
  ,                                       !- Air Changes per Hour {1/hr}
  1,                                      !- Constant Term Coefficient
  0,                                      !- Temperature Term Coefficient
  0,                                      !- Velocity Term Coefficient
  0;                                      !- Velocity Squared Term Coefficient

OS:Space,
  {d7710bf5-c50f-4592-be9d-fee5fa2f471d}, !- Handle
  M Corridor,                             !- Name
  {c19b9459-5dde-4468-be60-fe1a1fc05572}, !- Space Type Name
  ,                                       !- Default Construction Set Name
  ,                                       !- Default Schedule Set Name
  0,                                      !- Direction of Relative North {deg}
  0,                                      !- X Origin {m}
  7.6196,                                 !- Y Origin {m}
  3.0478,                                 !- Z Origin {m}
  {c6772b71-9266-4178-add2-0dee8e9b5ac2}, !- Building Story Name
  {18f7e183-cb8a-472e-958b-bad5ea0027eb}, !- Thermal Zone Name
  Yes,                                    !- Part of Total Floor Area
  {bcead458-3ec6-44b3-b735-5358ac7b21ef}; !- Design Specification Outdoor Air Object Name

OS:ThermostatSetpoint:DualSetpoint,
  {88e323bd-a10a-417c-a8b3-d264946c94d2}, !- Handle
  {9e2cc286-a3de-427e-90f9-9b70373ca062}, !- Name
  {f90f3f53-1ff9-49d7-b191-15a91e872823}, !- Heating Setpoint Temperature Schedule Name
  {3d33a5a8-9817-43dc-a058-49e20616dff9}; !- Cooling Setpoint Temperature Schedule Name

OS:Schedule:Compact,
  {f90f3f53-1ff9-49d7-b191-15a91e872823}, !- Handle
  UnitHeater_HtgSP_Sch,                   !- Name
  {75a232ad-8086-4dc9-a40b-d00e71f52666}, !- Schedule Type Limits Name
  THROUGH: 12/31,                         !- Field 1
  FOR:AllDays,                            !- Field 2
  UNTIL: 24:00,                           !- Field 3
  15.6;                                   !- Field 4

OS:Schedule:Compact,
  {3d33a5a8-9817-43dc-a058-49e20616dff9}, !- Handle
  UnitHeater_ClgSP_Sch,                   !- Name
  {75a232ad-8086-4dc9-a40b-d00e71f52666}, !- Schedule Type Limits Name
  THROUGH: 12/31,                         !- Field 1
  FOR:AllDays,                            !- Field 2
  UNTIL: 24:00,                           !- Field 3
  40;                                     !- Field 4

OS:Schedule:Compact,
  {515ffcc1-4d32-4d01-97b6-14814e3f7c33}, !- Handle
  INFIL_SCH,                              !- Name
  {fa028508-e9d3-42c0-8fe1-6d26da5da610}, !- Schedule Type Limits Name
  Through: 12/31,                         !- Field 1
  For: AllDays,                           !- Field 2
  Until: 24:00,                           !- Field 3
  1;                                      !- Field 4

OS:ScheduleTypeLimits,
  {fa028508-e9d3-42c0-8fe1-6d26da5da610}, !- Handle
  Fraction,                               !- Name
  0,                                      !- Lower Limit Value {BasedOnField A4}
  1,                                      !- Upper Limit Value {BasedOnField A4}
  CONTINUOUS;                             !- Numeric Type

OS:ShadowCalculation,
  {a39c43df-3178-460f-b612-1d8decec58d7}, !- Handle
  15000,                                  !- Calculation Frequency
  15000;                                  !- Maximum Figures in Shadow Overlap Calculations

OS:Surface,
  {a10bd17a-ed61-4198-ae74-ca0fb04d5bed}, !- Handle
  g EIWALL S1A,                           !- Name
  Wall,                                   !- Surface Type
  {58eab030-becd-41d6-b81d-ace9592690e6}, !- Construction Name
  {6a9bf497-4035-4d37-9166-01c6c70f8e50}, !- Space Name
  Surface,                                !- Outside Boundary Condition
  {aaf423f6-7623-4fd0-aacd-cbbab47f256a}, !- Outside Boundary Condition Object
  NoSun,                                  !- Sun Exposure
  NoWind,                                 !- Wind Exposure
  ,                                       !- View Factor to Ground
  ,                                       !- Number of Vertices
  11.5818, 0, 3.0478,                     !- X,Y,Z Vertex 1 {m}
  11.5818, 0, 0,                          !- X,Y,Z Vertex 2 {m}
  11.5818, 7.6196, 0,                     !- X,Y,Z Vertex 3 {m}
  11.5818, 7.6196, 3.0478;                !- X,Y,Z Vertex 4 {m}

OS:Construction,
  {58eab030-becd-41d6-b81d-ace9592690e6}, !- Handle
  int-walls,                              !- Name
  ,                                       !- Surface Rendering Name
  {427572bc-246a-430c-b262-ade1b38fc04c}, !- Layer 1
  {427572bc-246a-430c-b262-ade1b38fc04c}; !- Layer 2

OS:Space,
  {5510cff2-a797-4219-b73f-dd718b706739}, !- Handle
  G SW Apartment,                         !- Name
  {beee26bd-68fb-4128-a349-93cc713b073a}, !- Space Type Name
  ,                                       !- Default Construction Set Name
  ,                                       !- Default Schedule Set Name
  0,                                      !- Direction of Relative North {deg}
  0,                                      !- X Origin {m}
  0,                                      !- Y Origin {m}
  0,                                      !- Z Origin {m}
  {c459906b-8923-4abb-a5ad-59be794f85a5}, !- Building Story Name
  {655a6ba6-3a4a-48a8-9cb6-5c8e4413926b}, !- Thermal Zone Name
  Yes,                                    !- Part of Total Floor Area
  {47f836c0-d11b-4763-8b6f-d1078ff83668}; !- Design Specification Outdoor Air Object Name

OS:DesignSpecification:OutdoorAir,
  {47f836c0-d11b-4763-8b6f-d1078ff83668}, !- Handle
  SZ DSOA G SW Apartment,                 !- Name
  ,                                       !- Outdoor Air Method
  ,                                       !- Outdoor Air Flow per Person {m3/s-person}
  ,                                       !- Outdoor Air Flow per Floor Area {m3/s-m2}
  0.04248,                                !- Outdoor Air Flow Rate {m3/s}
  ,                                       !- Outdoor Air Flow Air Changes per Hour {1/hr}
  ;                                       !- Outdoor Air Flow Rate Fraction Schedule Name

OS:Surface,
  {ed8990e0-8ce7-4062-a0ff-b535c3adb5a1}, !- Handle
  G WWall N1A,                            !- Name
  Wall,                                   !- Surface Type
  {58eab030-becd-41d6-b81d-ace9592690e6}, !- Construction Name
  {efe7827d-872e-4c5c-be85-1dd96206d8fb}, !- Space Name
  Surface,                                !- Outside Boundary Condition
  {33945c90-d85b-492f-be41-35db89b29ef2}, !- Outside Boundary Condition Object
  NoSun,                                  !- Sun Exposure
  NoWind,                                 !- Wind Exposure
  ,                                       !- View Factor to Ground
  ,                                       !- Number of Vertices
  0, 7.6196, 3.0478,                      !- X,Y,Z Vertex 1 {m}
  0, 7.6196, 0,                           !- X,Y,Z Vertex 2 {m}
  0, 0, 0,                                !- X,Y,Z Vertex 3 {m}
  0, 0, 3.0478;                           !- X,Y,Z Vertex 4 {m}

OS:Space,
  {efe7827d-872e-4c5c-be85-1dd96206d8fb}, !- Handle
  G N1 Apartment,                         !- Name
  {beee26bd-68fb-4128-a349-93cc713b073a}, !- Space Type Name
  ,                                       !- Default Construction Set Name
  ,                                       !- Default Schedule Set Name
  0,                                      !- Direction of Relative North {deg}
  11.5818,                                !- X Origin {m}
  9.2959,                                 !- Y Origin {m}
  0,                                      !- Z Origin {m}
  {c459906b-8923-4abb-a5ad-59be794f85a5}, !- Building Story Name
  {a679203d-6533-4bb5-9aa5-fab7fd5ef2ce}, !- Thermal Zone Name
  Yes,                                    !- Part of Total Floor Area
  {caf805e1-58d3-4594-9d10-1e17c5331cee}; !- Design Specification Outdoor Air Object Name

OS:Lights:Definition,
  {cfcce293-25f6-4540-9a55-2eb2188ee148}, !- Handle
  T S2 Apartment_Lights Definition,       !- Name
  Watts/Area,                             !- Design Level Calculation Method
  ,                                       !- Lighting Level {W}
  3.88,                                   !- Watts per Space Floor Area {W/m2}
  ,                                       !- Watts per Person {W/person}
  0.7,                                    !- Fraction Radiant
  0.2,                                    !- Fraction Visible
  0,                                      !- Return Air Fraction
  No;                                     !- Return Air Fraction Calculated from Plenum Temperature

OS:Lights,
  {4fda84ac-ee04-4721-bcfb-c173c0c3be9b}, !- Handle
  T S2 Apartment_Lights,                  !- Name
  {cfcce293-25f6-4540-9a55-2eb2188ee148}, !- Lights Definition Name
  {20fd391d-0f69-4d76-8e4d-d51c38b96661}, !- Space or SpaceType Name
  {8cd8302b-d932-4cfc-ba74-0cf55819b278}, !- Schedule Name
  1,                                      !- Fraction Replaceable
  ,                                       !- Multiplier
  General;                                !- End-Use Subcategory

OS:Space,
  {20fd391d-0f69-4d76-8e4d-d51c38b96661}, !- Handle
  T S2 Apartment,                         !- Name
  {beee26bd-68fb-4128-a349-93cc713b073a}, !- Space Type Name
  ,                                       !- Default Construction Set Name
  ,                                       !- Default Schedule Set Name
  0,                                      !- Direction of Relative North {deg}
  23.1637,                                !- X Origin {m}
  0,                                      !- Y Origin {m}
  9.1435,                                 !- Z Origin {m}
  {77f7565a-c46c-433b-9c80-01b7864dbd17}, !- Building Story Name
  {2e91aa4a-ebda-4ec4-be78-2d75da4c7bfc}, !- Thermal Zone Name
  Yes,                                    !- Part of Total Floor Area
  {6dc30238-b708-41fc-b076-555c6edcd0a0}; !- Design Specification Outdoor Air Object Name

OS:Schedule:Compact,
  {8cd8302b-d932-4cfc-ba74-0cf55819b278}, !- Handle
  APT_LIGHT_SCH,                          !- Name
  {fa028508-e9d3-42c0-8fe1-6d26da5da610}, !- Schedule Type Limits Name
  Through: 12/31,                         !- Field 1
  For: AllDays,                           !- Field 2
  Until: 04:00,                           !- Field 3
  0.067,                                  !- Field 4
  Until: 05:00,                           !- Field 5
  0.187,                                  !- Field 6
  Until: 06:00,                           !- Field 7
  0.394,                                  !- Field 8
  Until: 07:00,                           !- Field 9
  0.440,                                  !- Field 10
  Until: 08:00,                           !- Field 11
  0.393,                                  !- Field 12
  Until: 09:00,                           !- Field 13
  0.172,                                  !- Field 14
  Until: 15:00,                           !- Field 15
  0.119,                                  !- Field 16
  Until: 16:00,                           !- Field 17
  0.206,                                  !- Field 18
  Until: 17:00,                           !- Field 19
  0.439,                                  !- Field 20
  Until: 18:00,                           !- Field 21
  0.616,                                  !- Field 22
  Until: 19:00,                           !- Field 23
  0.829,                                  !- Field 24
  Until: 20:00,                           !- Field 25
  0.986,                                  !- Field 26
  Until: 21:00,                           !- Field 27
  1.0,                                    !- Field 28
  Until: 22:00,                           !- Field 29
  0.692,                                  !- Field 30
  Until: 23:00,                           !- Field 31
  0.384,                                  !- Field 32
  Until: 24:00,                           !- Field 33
  0.160;                                  !- Field 34

OS:Surface,
  {f33063f1-0544-46b3-b1ab-1f861bd9395b}, !- Handle
  t EIWALL N1A,                           !- Name
  Wall,                                   !- Surface Type
  {58eab030-becd-41d6-b81d-ace9592690e6}, !- Construction Name
  {aa94f091-6e3d-4afa-9665-f856c8f81f25}, !- Space Name
  Surface,                                !- Outside Boundary Condition
  {3a5e9b88-045b-49ae-adb8-97a4170802b5}, !- Outside Boundary Condition Object
  NoSun,                                  !- Sun Exposure
  NoWind,                                 !- Wind Exposure
  ,                                       !- View Factor to Ground
  ,                                       !- Number of Vertices
  11.5818, 0, 3.0478,                     !- X,Y,Z Vertex 1 {m}
  11.5818, 0, 0,                          !- X,Y,Z Vertex 2 {m}
  11.5818, 7.6196, 0,                     !- X,Y,Z Vertex 3 {m}
  11.5818, 7.6196, 3.0478;                !- X,Y,Z Vertex 4 {m}

OS:Space,
  {aa94f091-6e3d-4afa-9665-f856c8f81f25}, !- Handle
  T N1 Apartment,                         !- Name
  {beee26bd-68fb-4128-a349-93cc713b073a}, !- Space Type Name
  ,                                       !- Default Construction Set Name
  ,                                       !- Default Schedule Set Name
  0,                                      !- Direction of Relative North {deg}
  11.5818,                                !- X Origin {m}
  9.2959,                                 !- Y Origin {m}
  9.1435,                                 !- Z Origin {m}
  {77f7565a-c46c-433b-9c80-01b7864dbd17}, !- Building Story Name
  {d8ea6e34-4052-4e86-a232-87b5f148a693}, !- Thermal Zone Name
  Yes,                                    !- Part of Total Floor Area
  {ae635305-de3a-46d2-8ac9-9b67390a0a82}; !- Design Specification Outdoor Air Object Name

OS:Surface,
  {1af74152-f103-4889-8015-4e92fa182dcc}, !- Handle
  t GFloor SEA,                           !- Name
  Floor,                                  !- Surface Type
  {9ea8ded6-52fc-4a2e-a2bb-419503593c92}, !- Construction Name
  {36c9fa6e-9d4c-4ded-89fd-e0587c7e6989}, !- Space Name
  Adiabatic,                              !- Outside Boundary Condition
  ,                                       !- Outside Boundary Condition Object
  NoSun,                                  !- Sun Exposure
  NoWind,                                 !- Wind Exposure
  ,                                       !- View Factor to Ground
  ,                                       !- Number of Vertices
  11.5818, 7.6196, 0,                     !- X,Y,Z Vertex 1 {m}
  11.5818, 0, 0,                          !- X,Y,Z Vertex 2 {m}
  0, 0, 0,                                !- X,Y,Z Vertex 3 {m}
  0, 7.6196, 0;                           !- X,Y,Z Vertex 4 {m}

OS:Construction,
  {9ea8ded6-52fc-4a2e-a2bb-419503593c92}, !- Handle
  INT-FLOOR-TOPSIDE,                      !- Name
  ,                                       !- Surface Rendering Name
  {7ccf7fa8-a727-4482-9bd7-1fcbe7eab9c5}, !- Layer 1
  {499e61a4-e167-40a1-920e-f00260c4e4f0}; !- Layer 2

OS:Material,
  {7ccf7fa8-a727-4482-9bd7-1fcbe7eab9c5}, !- Handle
  MAT-CC05 4 HW CONCRETE,                 !- Name
  Rough,                                  !- Roughness
  0.1016,                                 !- Thickness {m}
  1.311,                                  !- Conductivity {W/m-K}
  2240,                                   !- Density {kg/m3}
  836.8,                                  !- Specific Heat {J/kg-K}
  0.9,                                    !- Thermal Absorptance
  0.7,                                    !- Solar Absorptance
  0.7;                                    !- Visible Absorptance

OS:Space,
  {36c9fa6e-9d4c-4ded-89fd-e0587c7e6989}, !- Handle
  T SE Apartment,                         !- Name
  {beee26bd-68fb-4128-a349-93cc713b073a}, !- Space Type Name
  ,                                       !- Default Construction Set Name
  ,                                       !- Default Schedule Set Name
  0,                                      !- Direction of Relative North {deg}
  34.7455,                                !- X Origin {m}
  0,                                      !- Y Origin {m}
  9.1435,                                 !- Z Origin {m}
  {77f7565a-c46c-433b-9c80-01b7864dbd17}, !- Building Story Name
  {2e91aa4a-ebda-4ec4-be78-2d75da4c7bfc}, !- Thermal Zone Name
  Yes,                                    !- Part of Total Floor Area
  {479d778c-a501-4779-8b5b-d28c3ef2f622}; !- Design Specification Outdoor Air Object Name

OS:Surface,
  {b6923869-5c38-457e-9964-3514c5f5b4f7}, !- Handle
  g GFloor SEA,                           !- Name
  Floor,                                  !- Surface Type