
OS:Version,
  {15a17c72-05fc-4b8d-90bd-0a865a0b365e}, !- Handle
  1.8.5;                                  !- Version Identifier

OS:Site,
  {7dcdccf3-80bd-4117-befd-e858cffe128b}, !- Handle
  USA IL-CHICAGO-OHARE,                   !- Name
  41.77,                                  !- Latitude {deg}
  -87.75,                                 !- Longitude {deg}
  -6,                                     !- Time Zone {hr}
  190,                                    !- Elevation {m}
  City;                                   !- Terrain

OS:SimulationControl,
  {6370cc71-4238-4ab9-8fed-aae20c26b816}, !- Handle
  Yes,                                    !- Do Zone Sizing Calculation
  Yes,                                    !- Do System Sizing Calculation
  Yes,                                    !- Do Plant Sizing Calculation
  No,                                     !- Run Simulation for Sizing Periods
  Yes,                                    !- Run Simulation for Weather File Run Periods
  0.04,                                   !- Loads Convergence Tolerance Value
  0.2,                                    !- Temperature Convergence Tolerance Value {deltaC}
  FullInteriorAndExterior,                !- Solar Distribution
  25,                                     !- Maximum Number of Warmup Days
  6;                                      !- Minimum Number of Warmup Days

OS:Schedule:Compact,
  {d3acf13e-82f7-47d1-acb5-c0d7eebac89d}, !- Handle
  Kitchen Water Equipment Latent fract sched, !- Name
  {2950c10d-d18f-4677-b73e-bdb3870e9bfb}, !- Schedule Type Limits Name
  Through: 12/31,                         !- Field 1
  For: AllDays,                           !- Field 2
  Until: 24:00,                           !- Field 3
  0.05;                                   !- Field 4

OS:ScheduleTypeLimits,
  {2950c10d-d18f-4677-b73e-bdb3870e9bfb}, !- Handle
  Fraction,                               !- Name
  0,                                      !- Lower Limit Value {BasedOnField A4}
  1,                                      !- Upper Limit Value {BasedOnField A4}
  CONTINUOUS;                             !- Numeric Type

OS:Surface,
  {9069eea4-68bf-4ad6-b065-d7fb001f214f}, !- Handle
  Kitchen_Wall_North,                     !- Name
  Wall,                                   !- Surface Type
  {f542d364-f1b9-42d5-aaa2-cc1467ae7bc0}, !- Construction Name
  {336411c5-3a54-4595-be00-c09c23a58679}, !- Space Name
  Outdoors,                               !- Outside Boundary Condition
  ,                                       !- Outside Boundary Condition Object
  SunExposed,                             !- Sun Exposure
  WindExposed,                            !- Wind Exposure
  ,                                       !- View Factor to Ground
  ,                                       !- Number of Vertices
  15.2428, 15.2428, 3.0488,               !- X,Y,Z Vertex 1 {m}
  15.2428, 15.2428, 0,                    !- X,Y,Z Vertex 2 {m}
  0, 15.2428, 0,                          !- X,Y,Z Vertex 3 {m}
  0, 15.2428, 3.0488;                     !- X,Y,Z Vertex 4 {m}

OS:Construction,
  {f542d364-f1b9-42d5-aaa2-cc1467ae7bc0}, !- Handle
  Wood Frame Non-res Ext Wall,            !- Name
  ,                                       !- Surface Rendering Name
  {58391d00-40c0-41f4-931f-7fe9b5dc8463}, !- Layer 1
  {f9329d29-f934-4899-a56e-795813fdf7a8}, !- Layer 2
  {0dc16f0b-2a8c-4b6d-b7a1-443b89ce1553}; !- Layer 3

OS:Material,
  {58391d00-40c0-41f4-931f-7fe9b5dc8463}, !- Handle
  Wood Siding,                            !- Name
  MediumSmooth,                           !- Roughness
  0.01,                                   !- Thickness {m}
  0.11,                                   !- Conductivity {W/m-K}
  544.62,                                 !- Density {kg/m3}
  1210,                                   !- Specific Heat {J/kg-K}
  0.9,                                    !- Thermal Absorptance
  0.78,                                   !- Solar Absorptance
  0.78;                                   !- Visible Absorptance

OS:Material,
  {f9329d29-f934-4899-a56e-795813fdf7a8}, !- Handle
  Wood Frame NonRes Wall Insulation,      !- Name
  MediumRough,                            !- Roughness
  0.0812847864409827,                     !- Thickness {m}
  0.049,                                  !- Conductivity {W/m-K}
  265,                                    !- Density {kg/m3}
  836.8,                                  !- Specific Heat {J/kg-K}
  0.9,                                    !- Thermal Absorptance
  0.7,                                    !- Solar Absorptance
  0.7;                                    !- Visible Absorptance

OS:Material,
  {0dc16f0b-2a8c-4b6d-b7a1-443b89ce1553}, !- Handle
  1/2IN Gypsum,                           !- Name
  Smooth,                                 !- Roughness
  0.0127,                                 !- Thickness {m}
  0.16,                                   !- Conductivity {W/m-K}
  784.9,                                  !- Density {kg/m3}
  830,                                    !- Specific Heat {J/kg-K}
  0.9,                                    !- Thermal Absorptance
  0.92,                                   !- Solar Absorptance
  0.92;                                   !- Visible Absorptance

OS:Space,
  {336411c5-3a54-4595-be00-c09c23a58679}, !- Handle
  Kitchen,                                !- Name
  {29bc9ac1-34bf-430b-aff6-46b94c549117}, !- Space Type Name
  ,                                       !- Default Construction Set Name
  ,                                       !- Default Schedule Set Name
  0,                                      !- Direction of Relative North {deg}
  0,                                      !- X Origin {m}
  0,                                      !- Y Origin {m}
  0,                                      !- Z Origin {m}
  {a262c726-3bce-4b10-8c27-7fc6dfd26a43}, !- Building Story Name
  {79627df7-54f1-4708-906b-9275eb2984ac}, !- Thermal Zone Name
  Yes,                                    !- Part of Total Floor Area
  {a59cb203-cb32-438d-a867-e844cdc7ddc7}; !- Design Specification Outdoor Air Object Name

OS:Schedule:Compact,
  {3e8a58ee-eae3-4649-8068-d8510a84ad0f}, !- Handle
  HTGSETP_KITCHEN_SCH,                    !- Name
  {5d921255-74f4-4315-a3d4-d01fe115ce8f}, !- Schedule Type Limits Name
  Through: 12/31,                         !- Field 1
  For: SummerDesignDay,                   !- Field 2
  Until: 24:00,                           !- Field 3
  15.6,                                   !- Field 4
  For: WinterDesignDay,                   !- Field 5
  Until: 24:00,                           !- Field 6
  19,                                     !- Field 7
  For: AllOtherDays,                      !- Field 8
  Until: 01:00,                           !- Field 9
  19,                                     !- Field 10
  Until: 05:00,                           !- Field 11
  15.6,                                   !- Field 12
  Until: 24:00,                           !- Field 13
  19;                                     !- Field 14

OS:ScheduleTypeLimits,
  {5d921255-74f4-4315-a3d4-d01fe115ce8f}, !- Handle
  Temperature,                            !- Name
  -60,                                    !- Lower Limit Value {BasedOnField A4}
  200,                                    !- Upper Limit Value {BasedOnField A4}
  CONTINUOUS,                             !- Numeric Type
  Temperature;                            !- Unit Type

OS:Schedule:Compact,
  {8cdc9791-7624-4751-8ea5-0c9406c774b5}, !- Handle
  CLGSETP_KITCHEN_SCH,                    !- Name
  {5d921255-74f4-4315-a3d4-d01fe115ce8f}, !- Schedule Type Limits Name
  Through: 12/31,                         !- Field 1
  For: WinterDesignDay,                   !- Field 2
  Until: 24:00,                           !- Field 3
  30,                                     !- Field 4
  For: AllOtherDays,                      !- Field 5
  Until: 01:00,                           !- Field 6
  26,                                     !- Field 7
  Until: 05:00,                           !- Field 8
  30,                                     !- Field 9
  Until: 24:00,                           !- Field 10
  26;                                     !- Field 11

OS:InternalMass:Definition,
  {09b3fa56-f8c2-485a-86f9-9a3a17638618}, !- Handle
  Dining Internal Mass Definition,        !- Name
  {4dd0540c-805e-4011-813f-dab689def440}, !- Construction Name
  SurfaceArea,                            !- Design Level Calculation Method
  232.343,                                !- Surface Area {m2}
  ,                                       !- Surface Area per Space Floor Area {dimensionless}
  ;                                       !- Surface Area per Person {m2/person}

OS:Construction,
  {4dd0540c-805e-4011-813f-dab689def440}, !- Handle
  InteriorFurnishings,                    !- Name
  ,                                       !- Surface Rendering Name
  {85b89bf8-184e-466d-9a14-055c0113918b}; !- Layer 1

OS:Material,
  {85b89bf8-184e-466d-9a14-055c0113918b}, !- Handle
  Std Wood 6inch,                         !- Name
  MediumSmooth,                           !- Roughness
  0.15,                                   !- Thickness {m}
  0.12,                                   !- Conductivity {W/m-K}
  540,                                    !- Density {kg/m3}
  1210,                                   !- Specific Heat {J/kg-K}
  0.9,                                    !- Thermal Absorptance
  0.7,                                    !- Solar Absorptance
  0.7;                                    !- Visible Absorptance

OS:InternalMass,
  {55bba028-b3a1-4126-bbfc-44a534108a27}, !- Handle
  Dining Internal Mass,                   !- Name
  {09b3fa56-f8c2-485a-86f9-9a3a17638618}, !- Internal Mass Definition Name
  {67c24c4e-f2ae-44e0-ab66-1e570f7d8047}; !- Space or SpaceType Name

OS:Space,
  {67c24c4e-f2ae-44e0-ab66-1e570f7d8047}, !- Handle
  Dining,                                 !- Name
  {3ab64a40-fc07-4031-bf2b-6def07966edf}, !- Space Type Name
  ,                                       !- Default Construction Set Name
  ,                                       !- Default Schedule Set Name
  0,                                      !- Direction of Relative North {deg}
  0,                                      !- X Origin {m}
  0,                                      !- Y Origin {m}
  0,                                      !- Z Origin {m}
  {a262c726-3bce-4b10-8c27-7fc6dfd26a43}, !- Building Story Name
  {fb7e0cca-538b-4592-920c-63e09a1b5a81}, !- Thermal Zone Name
  Yes,                                    !- Part of Total Floor Area
  {e5cd5460-3a88-4d75-a427-34649bef94f7}; !- Design Specification Outdoor Air Object Name

OS:Schedule:Compact,
  {47f6c836-fac7-4e2a-81c1-88a3b003f007}, !- Handle
  HTGSETP_SCH,                            !- Name
  {5d921255-74f4-4315-a3d4-d01fe115ce8f}, !- Schedule Type Limits Name
  Through: 12/31,                         !- Field 1
  For: SummerDesignDay,                   !- Field 2
  Until: 24:00,                           !- Field 3
  15.6,                                   !- Field 4
  For: WinterDesignDay,                   !- Field 5
  Until: 24:00,                           !- Field 6
  21,                                     !- Field 7
  For: AllOtherDays,                      !- Field 8
  Until: 01:00,                           !- Field 9
  21,                                     !- Field 10
  Until: 05:00,                           !- Field 11
  15.6,                                   !- Field 12
  Until: 24:00,                           !- Field 13
  21;                                     !- Field 14

OS:Schedule:Compact,
  {f4d722e7-ea5a-4a24-a5c3-5e7a9dde2dcc}, !- Handle
  CLGSETP_SCH,                            !- Name
  {5d921255-74f4-4315-a3d4-d01fe115ce8f}, !- Schedule Type Limits Name
  Through: 12/31,                         !- Field 1
  For: WinterDesignDay,                   !- Field 2
  Until: 24:00,                           !- Field 3
  30,                                     !- Field 4
  For: AllOtherDays,                      !- Field 5
  Until: 01:00,                           !- Field 6
  24,                                     !- Field 7
  Until: 05:00,                           !- Field 8
  30,                                     !- Field 9
  Until: 24:00,                           !- Field 10
  24;                                     !- Field 11

OS:Schedule:Compact,
  {ea6c36b8-5eb2-49ad-80a7-9ca3cff6cf7b}, !- Handle
  BLDG_OCC_SCH,                           !- Name
  {2950c10d-d18f-4677-b73e-bdb3870e9bfb}, !- Schedule Type Limits Name
  Through: 12/31,                         !- Field 1
  For: Weekdays,                          !- Field 2
  Until: 01:00,                           !- Field 3
  0.05,                                   !- Field 4
  Until: 05:00,                           !- Field 5
  0.0,                                    !- Field 6
  Until: 06:00,                           !- Field 7
  0.05,                                   !- Field 8
  Until: 07:00,                           !- Field 9
  0.1,                                    !- Field 10
  Until: 09:00,                           !- Field 11
  0.4,                                    !- Field 12
  Until: 10:00,                           !- Field 13
  0.3,                                    !- Field 14
  Until: 11:00,                           !- Field 15
  0.2,                                    !- Field 16
  Until: 12:00,                           !- Field 17
  0.5,                                    !- Field 18
  Until: 13:00,                           !- Field 19
  0.8,                                    !- Field 20
  Until: 14:00,                           !- Field 21
  0.7,                                    !- Field 22
  Until: 15:00,                           !- Field 23
  0.4,                                    !- Field 24
  Until: 16:00,                           !- Field 25
  0.2,                                    !- Field 26
  Until: 17:00,                           !- Field 27
  0.25,                                   !- Field 28
  Until: 18:00,                           !- Field 29
  0.5,                                    !- Field 30
  Until: 21:00,                           !- Field 31
  0.55,                                   !- Field 32
  Until: 22:00,                           !- Field 33
  0.5,                                    !- Field 34
  Until: 23:00,                           !- Field 35
  0.35,                                   !- Field 36
  Until: 24:00,                           !- Field 37
  0.2,                                    !- Field 38
  For: SummerDesignDay,                   !- Field 39
  Until: 24:00,                           !- Field 40
  1.0,                                    !- Field 41
  For: WinterDesignDay,                   !- Field 42
  Until: 24:00,                           !- Field 43
  0.0,                                    !- Field 44
  For: Saturday Sunday Holidays AllOtherDays, !- Field 45
  Until: 01:00,                           !- Field 46
  0.05,                                   !- Field 47
  Until: 05:00,                           !- Field 48
  0.0,                                    !- Field 49
  Until: 07:00,                           !- Field 50
  0.05,                                   !- Field 51
  Until: 10:00,                           !- Field 52
  0.3,                                    !- Field 53
  Until: 11:00,                           !- Field 54
  0.2,                                    !- Field 55
  Until: 12:00,                           !- Field 56
  0.45,                                   !- Field 57
  Until: 13:00,                           !- Field 58
  0.6,                                    !- Field 59
  Until:14:00,                            !- Field 60
  0.5,                                    !- Field 61
  Until: 15:00,                           !- Field 62
  0.35,                                   !- Field 63
  Until: 18:00,                           !- Field 64
  0.3,                                    !- Field 65
  Until: 21:00,                           !- Field 66
  0.55,                                   !- Field 67
  Until: 22:00,                           !- Field 68
  0.5,                                    !- Field 69
  Until: 23:00,                           !- Field 70
  0.35,                                   !- Field 71
  Until: 24:00,                           !- Field 72
  0.2;                                    !- Field 73

OS:Schedule:Compact,
  {d3965d88-6099-4d0e-b650-f3074c803481}, !- Handle
  Kitchen_Case:1_WALKINFREEZER_CaseCreditReduxSched, !- Name
  {2950c10d-d18f-4677-b73e-bdb3870e9bfb}, !- Schedule Type Limits Name
  Through: 12/31,                         !- Field 1
  For:AllDays,                            !- Field 2
  Interpolate:No,                         !- Field 3
  Until: 7:00,                            !- Field 4
  0.2,                                    !- Field 5
  Until: 21:00,                           !- Field 6
  0.4,                                    !- Field 7
  Until: 24:00,                           !- Field 8
  0.2;                                    !- Field 9

OS:Schedule:Compact,
  {2b900a12-4a39-42b8-ac8c-bd75ec4b01ce}, !- Handle
  BLDG_EQUIP_SCH,                         !- Name
  {2950c10d-d18f-4677-b73e-bdb3870e9bfb}, !- Schedule Type Limits Name
  Through: 12/31,                         !- Field 1
  For: Weekday,                           !- Field 2
  Until: 06:00,                           !- Field 3
  0.10,                                   !- Field 4
  Until: 08:00,                           !- Field 5
  0.35,                                   !- Field 6
  Until: 10:00,                           !- Field 7
  0.25,                                   !- Field 8
  Until: 14:00,                           !- Field 9
  0.35,                                   !- Field 10
  Until: 17:00,                           !- Field 11
  0.25,                                   !- Field 12
  Until: 20:00,                           !- Field 13
  0.35,                                   !- Field 14
  Until: 24:00,                           !- Field 15
  0.25,                                   !- Field 16
  For: Saturday,                          !- Field 17
  Until: 06:00,                           !- Field 18
  0.10,                                   !- Field 19
  Until: 08:00,                           !- Field 20
  0.35,                                   !- Field 21
  Until: 10:00,                           !- Field 22
  0.25,                                   !- Field 23
  Until: 14:00,                           !- Field 24
  0.35,                                   !- Field 25
  Until: 17:00,                           !- Field 26
  0.25,                                   !- Field 27
  Until: 20:00,                           !- Field 28
  0.35,                                   !- Field 29
  Until: 24:00,                           !- Field 30
  0.25,                                   !- Field 31
  For: SummerDesignDay,                   !- Field 32
  Until: 24:00,                           !- Field 33
  0.35,                                   !- Field 34
  For: WinterDesignDay,                   !- Field 35
  Until: 24:00,                           !- Field 36
  0.0,                                    !- Field 37
  For: Sunday Holidays AllOtherDays,      !- Field 38
  Until: 06:00,                           !- Field 39
  0.10,                                   !- Field 40
  Until: 08:00,                           !- Field 41
  0.35,                                   !- Field 42
  Until: 10:00,                           !- Field 43
  0.25,                                   !- Field 44
  Until: 14:00,                           !- Field 45
  0.35,                                   !- Field 46
  Until: 17:00,                           !- Field 47
  0.25,                                   !- Field 48
  Until: 20:00,                           !- Field 49
  0.35,                                   !- Field 50
  Until: 24:00,                           !- Field 51
  0.25;                                   !- Field 52

OS:Curve:Biquadratic,
  {31840a25-0e2d-43f4-83db-88e5757be7cd}, !- Handle
  Measured_CoolCStandard10Ton_CapFT,      !- Name
  0.52357,                                !- Coefficient1 Constant
  0.03478,                                !- Coefficient2 x
  0,                                      !- Coefficient3 x**2
  -0.001915,                              !- Coefficient4 y
  -0.00010838,                            !- Coefficient5 y**2
  0,                                      !- Coefficient6 x*y
  11.1,                                   !- Minimum Value of x {BasedOnField A2}
  29.4,                                   !- Maximum Value of x {BasedOnField A2}
  10,                                     !- Minimum Value of y {BasedOnField A3}
  50.3;                                   !- Maximum Value of y {BasedOnField A3}

OS:Schedule:Compact,
  {506a2a83-8746-4709-b936-bc74f048840f}, !- Handle
  Kitchen_Case:1_WALKINFREEZER_CaseDefrost2aDaySched, !- Name
  {f6ae39e9-3320-4254-99e7-4f54cc7799de}, !- Schedule Type Limits Name
  Through: 12/31,                         !- Field 1
  For:AllDays,                            !- Field 2
  Interpolate:Yes,                        !- Field 3
  Until: 11:00,                           !- Field 4
  0,                                      !- Field 5
  Until: 11:20,                           !- Field 6
  1,                                      !- Field 7
  Until: 23:00,                           !- Field 8
  0,                                      !- Field 9
  Until: 23:20,                           !- Field 10
  1,                                      !- Field 11
  Until: 24:00,                           !- Field 12
  0;                                      !- Field 13

OS:ScheduleTypeLimits,
  {f6ae39e9-3320-4254-99e7-4f54cc7799de}, !- Handle
  On/Off,                                 !- Name
  0,                                      !- Lower Limit Value {BasedOnField A4}
  1,                                      !- Upper Limit Value {BasedOnField A4}
  DISCRETE,                               !- Numeric Type
  Availability;                           !- Unit Type

OS:Schedule:Compact,
  {1ad1ba21-9e6c-4b33-8a14-693790aa30dc}, !- Handle
  PlantOnSched,                           !- Name
  {f6ae39e9-3320-4254-99e7-4f54cc7799de}, !- Schedule Type Limits Name
  Through: 12/31,                         !- Field 1
  For: AllDays,                           !- Field 2
  Until: 24:00,                           !- Field 3
  1.0;                                    !- Field 4

OS:Schedule:Compact,
  {03044763-8b5a-4fca-9d5b-883dc32785a8}, !- Handle
  GAS_EQUIP_SCH,                          !- Name
  {2950c10d-d18f-4677-b73e-bdb3870e9bfb}, !- Schedule Type Limits Name
  Through: 12/31,                         !- Field 1
  For: SummerDesignDay,                   !- Field 2
  Until: 24:00,                           !- Field 3
  0.25,                                   !- Field 4
  For: WinterDesignDay,                   !- Field 5
  Until: 24:00,                           !- Field 6
  0.0,                                    !- Field 7
  For: AllOtherDays,                      !- Field 8
  Until: 05:00,                           !- Field 9
  0.02,                                   !- Field 10
  Until: 06:00,                           !- Field 11
  0.03,                                   !- Field 12
  Until: 07:00,                           !- Field 13
  0.09,                                   !- Field 14
  Until: 08:00,                           !- Field 15
  0.14,                                   !- Field 16
  Until: 10:00,                           !- Field 17
  0.10,                                   !- Field 18
  Until: 11:00,                           !- Field 19
  0.22,                                   !- Field 20
  Until: 12:00,                           !- Field 21
  0.27,                                   !- Field 22
  Until: 13:00,                           !- Field 23
  0.24,                                   !- Field 24
  Until: 14:00,                           !- Field 25
  0.21,                                   !- Field 26
  Until: 15:00,                           !- Field 27
  0.14,                                   !- Field 28
  Until:16:00,                            !- Field 29
  0.13,                                   !- Field 30
  Until:17:00,                            !- Field 31
  0.15,                                   !- Field 32
  Until: 20:00,                           !- Field 33
  0.17,                                   !- Field 34
  Until: 21:00,                           !- Field 35
  0.15,                                   !- Field 36
  Until: 22:00,                           !- Field 37
  0.14,                                   !- Field 38
  Until: 23:00,                           !- Field 39
  0.12,                                   !- Field 40
  Until: 24:00,                           !- Field 41
  0.02;                                   !- Field 42

OS:Schedule:Compact,
  {a41f54a7-559b-4700-a4d8-8070842aaaf5}, !- Handle
  Kitchen_Case:2_SELFCONTAINEDDISPLAYCASE_CaseStockingSched, !- Name
  ,                                       !- Schedule Type Limits Name
  Through: 12/31,                         !- Field 1
  For:AllDays,                            !- Field 2
  Until: 6:00,                            !- Field 3
  0.0,                                    !- Field 4
  Until: 7:00,                            !- Field 5
  50.0,                                   !- Field 6
  Until: 9:00,                            !- Field 7
  70.0,                                   !- Field 8
  Until: 10:00,                           !- Field 9
  80.0,                                   !- Field 10
  Until: 11:00,                           !- Field 11
  70.0,                                   !- Field 12
  Until: 13:00,                           !- Field 13
  50.0,                                   !- Field 14
  Until: 14:00,                           !- Field 15
  80.0,                                   !- Field 16
  Until: 15:00,                           !- Field 17
  90.0,                                   !- Field 18
  Until: 16:00,                           !- Field 19
  80.0,                                   !- Field 20
  Until: 24:00,                           !- Field 21
  0.0;                                    !- Field 22

OS:ScheduleTypeLimits,
  {4ac5782e-16f6-41b7-9315-40f9f9abb8c4}, !- Handle
  {ac610cec-5cc8-46e9-8d26-9f1ab167b492}; !- Name

OS:Sizing:Parameters,
  {b2409ebe-2188-4267-b6eb-82cb464934c7}, !- Handle
  1.2,                                    !- Heating Sizing Factor
  1.2,                                    !- Cooling Sizing Factor
  4;                                      !- Timesteps in Averaging Window

OS:Material,
  {b62a94ec-f9c2-4ff2-959c-b4638513c5ea}, !- Handle
  MAT-CC05 4 HW CONCRETE,                 !- Name
  Rough,                                  !- Roughness
  0.1016,                                 !- Thickness {m}
  1.311,                                  !- Conductivity {W/m-K}
  2240,                                   !- Density {kg/m3}
  836.8,                                  !- Specific Heat {J/kg-K}
  0.9,                                    !- Thermal Absorptance
  0.7,                                    !- Solar Absorptance
  0.7;                                    !- Visible Absorptance

OS:ScheduleTypeLimits,
  {35d50307-cb9f-4cf6-86b9-07788cd3936e}, !- Handle
  Humidity,                               !- Name
  10,                                     !- Lower Limit Value {BasedOnField A4}
  90,                                     !- Upper Limit Value {BasedOnField A4}
  CONTINUOUS;                             !- Numeric Type

OS:SizingPeriod:DesignDay,
  {bd02426f-0b21-4369-8809-402535437caa}, !- Handle
  CHICAGO Ann Clg .4% Condns WB=>MDB,     !- Name
  31.2,                                   !- Maximum Dry-Bulb Temperature {C}
  10.7,                                   !- Daily Dry-Bulb Temperature Range {deltaC}
  25.5,                                   !- Humidity Indicating Conditions at Maximum Dry-Bulb {BasedOnField A3}
  99063,                                  !- Barometric Pressure {Pa}
  5.3,                                    !- Wind Speed {m/s}
  230,                                    !- Wind Direction {deg}
  1,                                      !- Sky Clearness
  0,                                      !- Rain Indicator
  0,                                      !- Snow Indicator
  21,                                     !- Day of Month
  7,                                      !- Month
  SummerDesignDay,                        !- Day Type
  0,                                      !- Daylight Saving Time Indicator
  Wetbulb,                                !- Humidity Indicating Type
  ,                                       !- Humidity Indicating Day Schedule Name
  ,                                       !- Dry-Bulb Temperature Range Modifier Type
  ,                                       !- Dry-Bulb Temperature Range Modifier Schedule Name
  ASHRAEClearSky;                         !- Solar Model Indicator

OS:Curve:Cubic,
  {ea7376e4-16f6-4533-9e3b-b3e82c91d02a}, !- Handle
  Kitchen_Case:2_SELFCONTAINEDDISPLAYCASEMultiShelfVertical_LatentEnergyMult, !- Name
  0.026526281,                            !- Coefficient1 Constant
  0.001078032,                            !- Coefficient2 x
  -6.02558e-005,                          !- Coefficient3 x**2
  1.23732e-006,                           !- Coefficient4 x**3
  -35,                                    !- Minimum Value of x {BasedOnField A2}