
OS:Version,
  {c71e843e-daed-452d-94f1-8b702599e545}, !- Handle
  1.8.5;                                  !- Version Identifier

OS:Site,
  {0122087b-55c2-4c59-8a8e-6246b11131f3}, !- Handle
  USA IL-CHICAGO-OHARE,                   !- Name
  41.77,                                  !- Latitude {deg}
  -87.75,                                 !- Longitude {deg}
  -6,                                     !- Time Zone {hr}
  190,                                    !- Elevation {m}
  City;                                   !- Terrain

OS:SimulationControl,
  {d4ade6c3-150a-4c4b-8fa0-a400299f2fe2}, !- Handle
  Yes,                                    !- Do Zone Sizing Calculation
  Yes,                                    !- Do System Sizing Calculation
  Yes,                                    !- Do Plant Sizing Calculation
  No,                                     !- Run Simulation for Sizing Periods
  Yes,                                    !- Run Simulation for Weather File Run Periods
  0.04,                                   !- Loads Convergence Tolerance Value
  0.2,                                    !- Temperature Convergence Tolerance Value {deltaC}
  FullInteriorAndExterior,                !- Solar Distribution
  25,                                     !- Maximum Number of Warmup Days
  6;                                      !- Minimum Number of Warmup Days

OS:Surface,
  {c9a4f7f3-4536-4d81-89dd-50b539164ef7}, !- Handle
  Kitchen_Wall_East,                      !- Name
  Wall,                                   !- Surface Type
  {760341fd-27d8-4581-8fc6-b38f8c064a93}, !- Construction Name
  {31724aa6-3e62-434d-8e0c-2712a6329b9b}, !- Space Name
  Outdoors,                               !- Outside Boundary Condition
  ,                                       !- Outside Boundary Condition Object
  SunExposed,                             !- Sun Exposure
  WindExposed,                            !- Wind Exposure
  ,                                       !- View Factor to Ground
  ,                                       !- Number of Vertices
  15.2428, 7.6214, 3.0488,                !- X,Y,Z Vertex 1 {m}
  15.2428, 7.6214, 0,                     !- X,Y,Z Vertex 2 {m}
  15.2428, 15.2428, 0,                    !- X,Y,Z Vertex 3 {m}
  15.2428, 15.2428, 3.0488;               !- X,Y,Z Vertex 4 {m}

OS:Construction,
  {760341fd-27d8-4581-8fc6-b38f8c064a93}, !- Handle
  Wood Frame Non-res Ext Wall,            !- Name
  ,                                       !- Surface Rendering Name
  {f6ac1de0-1e19-4a0f-83d0-4a024b01a3e8}, !- Layer 1
  {1755fac5-9527-4f51-9a4a-a6f45584b4b5}, !- Layer 2
  {f6344c8a-ea07-4025-a950-ab5065bc6c53}; !- Layer 3

OS:Material,
  {f6ac1de0-1e19-4a0f-83d0-4a024b01a3e8}, !- Handle
  Wood Siding,                            !- Name
  MediumSmooth,                           !- Roughness
  0.01,                                   !- Thickness {m}
  0.11,                                   !- Conductivity {W/m-K}
  544.62,                                 !- Density {kg/m3}
  1210,                                   !- Specific Heat {J/kg-K}
  0.9,                                    !- Thermal Absorptance
  0.78,                                   !- Solar Absorptance
  0.78;                                   !- Visible Absorptance

OS:Material,
  {1755fac5-9527-4f51-9a4a-a6f45584b4b5}, !- Handle
  Wood Frame NonRes Wall Insulation,      !- Name
  MediumRough,                            !- Roughness
  0.0812847864409827,                     !- Thickness {m}
  0.049,                                  !- Conductivity {W/m-K}
  265,                                    !- Density {kg/m3}
  836.8,                                  !- Specific Heat {J/kg-K}
  0.9,                                    !- Thermal Absorptance
  0.7,                                    !- Solar Absorptance
  0.7;                                    !- Visible Absorptance

OS:Material,
  {f6344c8a-ea07-4025-a950-ab5065bc6c53}, !- Handle
  1/2IN Gypsum,                           !- Name
  Smooth,                                 !- Roughness
  0.0127,                                 !- Thickness {m}
  0.16,                                   !- Conductivity {W/m-K}
  784.9,                                  !- Density {kg/m3}
  830,                                    !- Specific Heat {J/kg-K}
  0.9,                                    !- Thermal Absorptance
  0.92,                                   !- Solar Absorptance
  0.92;                                   !- Visible Absorptance

OS:Space,
  {31724aa6-3e62-434d-8e0c-2712a6329b9b}, !- Handle
  Kitchen,                                !- Name
  {2a479fa3-667c-45e7-a779-81f50a71faf1}, !- Space Type Name
  ,                                       !- Default Construction Set Name
  ,                                       !- Default Schedule Set Name
  0,                                      !- Direction of Relative North {deg}
  0,                                      !- X Origin {m}
  0,                                      !- Y Origin {m}
  0,                                      !- Z Origin {m}
  {34af1633-d617-49c1-bb60-3ab2618130e3}, !- Building Story Name
  {7a613a19-7955-422a-b976-e62f39519bee}, !- Thermal Zone Name
  Yes,                                    !- Part of Total Floor Area
  {0d7b3d22-e0b1-4b54-8055-08d33b9a74b5}; !- Design Specification Outdoor Air Object Name

OS:Schedule:Compact,
  {6442d757-6845-4d62-949e-d266425b01ec}, !- Handle
  HTGSETP_KITCHEN_SCH,                    !- Name
  {4db2d58a-d146-4e80-8bbe-28ce9bed67a4}, !- Schedule Type Limits Name
  Through: 12/31,                         !- Field 1
  For: SummerDesignDay,                   !- Field 2
  Until: 24:00,                           !- Field 3
  15.6,                                   !- Field 4
  For: WinterDesignDay,                   !- Field 5
  Until: 24:00,                           !- Field 6
  19,                                     !- Field 7
  For: AllOtherDays,                      !- Field 8
  Until: 01:00,                           !- Field 9
  19,                                     !- Field 10
  Until: 05:00,                           !- Field 11
  15.6,                                   !- Field 12
  Until: 24:00,                           !- Field 13
  19;                                     !- Field 14

OS:ScheduleTypeLimits,
  {4db2d58a-d146-4e80-8bbe-28ce9bed67a4}, !- Handle
  Temperature,                            !- Name
  -60,                                    !- Lower Limit Value {BasedOnField A4}
  200,                                    !- Upper Limit Value {BasedOnField A4}
  CONTINUOUS,                             !- Numeric Type
  Temperature;                            !- Unit Type

OS:Schedule:Compact,
  {9d3fdc54-6398-4d72-9330-91536c24bb84}, !- Handle
  CLGSETP_KITCHEN_SCH,                    !- Name
  {4db2d58a-d146-4e80-8bbe-28ce9bed67a4}, !- Schedule Type Limits Name
  Through: 12/31,                         !- Field 1
  For: WinterDesignDay,                   !- Field 2
  Until: 24:00,                           !- Field 3
  30,                                     !- Field 4
  For: AllOtherDays,                      !- Field 5
  Until: 01:00,                           !- Field 6
  26,                                     !- Field 7
  Until: 05:00,                           !- Field 8
  30,                                     !- Field 9
  Until: 24:00,                           !- Field 10
  26;                                     !- Field 11

OS:Schedule:Compact,
  {a59fc593-9f2b-42c9-bd6a-29def2bb7c7e}, !- Handle
  BLDG_SWH_SCH,                           !- Name
  {96dd937c-b459-4857-8d91-c24708829bc7}, !- Schedule Type Limits Name
  Through: 12/31,                         !- Field 1
  For: Weekdays SummerDesignDay,          !- Field 2
  Until: 01:00,                           !- Field 3
  0.2,                                    !- Field 4
  Until: 06:00,                           !- Field 5
  0.0,                                    !- Field 6
  Until: 07:00,                           !- Field 7
  0.15,                                   !- Field 8
  Until: 08:00,                           !- Field 9
  0.6,                                    !- Field 10
  Until: 09:00,                           !- Field 11
  0.55,                                   !- Field 12
  Until: 10:00,                           !- Field 13
  0.45,                                   !- Field 14
  Until: 11:00,                           !- Field 15
  0.4,                                    !- Field 16
  Until: 12:00,                           !- Field 17
  0.45,                                   !- Field 18
  Until: 13:00,                           !- Field 19
  0.4,                                    !- Field 20
  Until: 14:00,                           !- Field 21
  0.35,                                   !- Field 22
  Until: 17:00,                           !- Field 23
  0.3,                                    !- Field 24
  Until: 18:00,                           !- Field 25
  0.4,                                    !- Field 26
  Until: 19:00,                           !- Field 27
  0.55,                                   !- Field 28
  Until: 20:00,                           !- Field 29
  0.6,                                    !- Field 30
  Until: 21:00,                           !- Field 31
  0.5,                                    !- Field 32
  Until: 22:00,                           !- Field 33
  0.55,                                   !- Field 34
  Until: 23:00,                           !- Field 35
  0.45,                                   !- Field 36
  Until: 24:00,                           !- Field 37
  0.25,                                   !- Field 38
  For: Saturday WinterDesignDay,          !- Field 39
  Until: 01:00,                           !- Field 40
  0.2,                                    !- Field 41
  Until: 06:00,                           !- Field 42
  0.0,                                    !- Field 43
  Until: 09:00,                           !- Field 44
  0.15,                                   !- Field 45
  Until: 10:00,                           !- Field 46
  0.5,                                    !- Field 47
  Until: 11:00,                           !- Field 48
  0.45,                                   !- Field 49
  Until: 13:00,                           !- Field 50
  0.5,                                    !- Field 51
  Until: 14:00,                           !- Field 52
  0.45,                                   !- Field 53
  Until: 16:00,                           !- Field 54
  0.4,                                    !- Field 55
  Until: 17:00,                           !- Field 56
  0.35,                                   !- Field 57
  Until: 18:00,                           !- Field 58
  0.4,                                    !- Field 59
  Until: 20:00,                           !- Field 60
  0.55,                                   !- Field 61
  Until: 21:00,                           !- Field 62
  0.5,                                    !- Field 63
  Until: 22:00,                           !- Field 64
  0.55,                                   !- Field 65
  Until: 23:00,                           !- Field 66
  0.4,                                    !- Field 67
  Until: 24:00,                           !- Field 68
  0.3,                                    !- Field 69
  For: Sunday Holidays AllOtherDays,      !- Field 70
  Until: 01:00,                           !- Field 71
  0.25,                                   !- Field 72
  Until: 06:00,                           !- Field 73
  0.0,                                    !- Field 74
  Until: 10:00,                           !- Field 75
  0.15,                                   !- Field 76
  Until: 12:00,                           !- Field 77
  0.5,                                    !- Field 78
  Until: 14:00,                           !- Field 79
  0.4,                                    !- Field 80
  Until: 17:00,                           !- Field 81
  0.3,                                    !- Field 82
  Until: 18:00,                           !- Field 83
  0.4,                                    !- Field 84
  Until: 20:00,                           !- Field 85
  0.5,                                    !- Field 86
  Until: 21:00,                           !- Field 87
  0.4,                                    !- Field 88
  Until: 22:00,                           !- Field 89
  0.5,                                    !- Field 90
  Until: 23:00,                           !- Field 91
  0.4,                                    !- Field 92
  Until: 24:00,                           !- Field 93
  0.2;                                    !- Field 94

OS:ScheduleTypeLimits,
  {96dd937c-b459-4857-8d91-c24708829bc7}, !- Handle
  Fraction,                               !- Name
  0,                                      !- Lower Limit Value {BasedOnField A4}
  1,                                      !- Upper Limit Value {BasedOnField A4}
  CONTINUOUS;                             !- Numeric Type

OS:Schedule:Compact,
  {2f742437-2026-44ce-add9-da3b924d5925}, !- Handle
  Kitchen Water Equipment Latent fract sched, !- Name
  {96dd937c-b459-4857-8d91-c24708829bc7}, !- Schedule Type Limits Name
  Through: 12/31,                         !- Field 1
  For: AllDays,                           !- Field 2
  Until: 24:00,                           !- Field 3
  0.05;                                   !- Field 4

OS:Meter,
  {622973e5-861a-4c73-990d-8495ae0173f1}, !- Handle
  ExteriorLights:Electricity,             !- Name
  hourly,                                 !- Reporting Frequency
  False,                                  !- Meter File Only
  False;                                  !- Cumulative

OS:Schedule:Compact,
  {ddcaec35-bf05-4704-a143-2b7604ccd28d}, !- Handle
  CLGSETP_SCH,                            !- Name
  {4db2d58a-d146-4e80-8bbe-28ce9bed67a4}, !- Schedule Type Limits Name
  Through: 12/31,                         !- Field 1
  For: WinterDesignDay,                   !- Field 2
  Until: 24:00,                           !- Field 3
  30,                                     !- Field 4
  For: AllOtherDays,                      !- Field 5
  Until: 01:00,                           !- Field 6
  24,                                     !- Field 7
  Until: 05:00,                           !- Field 8
  30,                                     !- Field 9
  Until: 24:00,                           !- Field 10
  24;                                     !- Field 11

OS:Curve:Biquadratic,
  {e0166f95-fb69-44c9-bb66-96441d377d50}, !- Handle
  Measured_LowSpeedCoolEIRLSFT,           !- Name
  1.1389,                                 !- Coefficient1 Constant
  -0.04518,                               !- Coefficient2 x
  0.0014298,                              !- Coefficient3 x**2
  0.006044,                               !- Coefficient4 y
  0.0006745,                              !- Coefficient5 y**2
  -0.0012325,                             !- Coefficient6 x*y
  11.1,                                   !- Minimum Value of x {BasedOnField A2}
  29.4,                                   !- Maximum Value of x {BasedOnField A2}
  10,                                     !- Minimum Value of y {BasedOnField A3}
  50.3;                                   !- Maximum Value of y {BasedOnField A3}

OS:SpaceInfiltration:DesignFlowRate,
  {21ba7a06-9494-494d-8f31-2264cc772d9b}, !- Handle
  Kitchen_Infiltration,                   !- Name
  {31724aa6-3e62-434d-8e0c-2712a6329b9b}, !- Space or SpaceType Name
  {f5775495-4e38-418c-a235-4523fcaab56e}, !- Schedule Name
  Flow/ExteriorArea,                      !- Design Flow Rate Calculation Method
  ,                                       !- Design Flow Rate {m3/s}
  ,                                       !- Flow per Space Floor Area {m3/s-m2}
  0.000302,                               !- Flow per Exterior Surface Area {m3/s-m2}
  ,                                       !- Air Changes per Hour {1/hr}
  1,                                      !- Constant Term Coefficient
  0,                                      !- Temperature Term Coefficient
  0,                                      !- Velocity Term Coefficient
  0;                                      !- Velocity Squared Term Coefficient

OS:Schedule:Compact,
  {f5775495-4e38-418c-a235-4523fcaab56e}, !- Handle
  INFIL_HALF_ON_SCH,                      !- Name
  {96dd937c-b459-4857-8d91-c24708829bc7}, !- Schedule Type Limits Name
  Through: 12/31,                         !- Field 1
  For: Weekdays SummerDesignDay,          !- Field 2
  Until: 05:00,                           !- Field 3
  1.0,                                    !- Field 4
  Until: 24:00,                           !- Field 5
  0.5,                                    !- Field 6
  For: Saturday WinterDesignDay,          !- Field 7
  Until: 05:00,                           !- Field 8
  1.0,                                    !- Field 9
  Until: 24:00,                           !- Field 10
  0.5,                                    !- Field 11
  For: Sunday Holidays AllOtherDays,      !- Field 12
  Until: 05:00,                           !- Field 13
  1.0,                                    !- Field 14
  Until: 24:00,                           !- Field 15
  0.5;                                    !- Field 16

OS:ScheduleTypeLimits,
  {c9a82d37-ac88-4f59-8ef1-6062aa7a257b}, !- Handle
  Control Type,                           !- Name
  0,                                      !- Lower Limit Value {BasedOnField A4}
  4,                                      !- Upper Limit Value {BasedOnField A4}
  DISCRETE,                               !- Numeric Type
  ControlMode;                            !- Unit Type

OS:Material,
  {853d704a-c182-4afb-a3e1-41c23fe10ef1}, !- Handle
  Metal Siding,                           !- Name
  Smooth,                                 !- Roughness
  0.0015,                                 !- Thickness {m}
  44.96,                                  !- Conductivity {W/m-K}
  7688.86,                                !- Density {kg/m3}
  410,                                    !- Specific Heat {J/kg-K}
  0.9,                                    !- Thermal Absorptance
  0.2,                                    !- Solar Absorptance
  0.2;                                    !- Visible Absorptance

OS:Curve:Quadratic,
  {204a8ef7-1ec1-4390-82a6-4056bccb7d56}, !- Handle
  No_PLR_Degredation,                     !- Name
  1,                                      !- Coefficient1 Constant
  0,                                      !- Coefficient2 x
  0,                                      !- Coefficient3 x**2
  0,                                      !- Minimum Value of x {BasedOnField A2}
  1;                                      !- Maximum Value of x {BasedOnField A2}

OS:Schedule:Compact,
  {205d3ede-b1c7-4950-a4e1-ee6c4506fc53}, !- Handle
  BLDG_OCC_SCH,                           !- Name
  {96dd937c-b459-4857-8d91-c24708829bc7}, !- Schedule Type Limits Name
  Through: 12/31,                         !- Field 1
  For: Weekdays,                          !- Field 2
  Until: 01:00,                           !- Field 3
  0.05,                                   !- Field 4
  Until: 05:00,                           !- Field 5
  0.0,                                    !- Field 6
  Until: 06:00,                           !- Field 7
  0.05,                                   !- Field 8
  Until: 07:00,                           !- Field 9
  0.1,                                    !- Field 10
  Until: 09:00,                           !- Field 11
  0.4,                                    !- Field 12
  Until: 10:00,                           !- Field 13
  0.3,                                    !- Field 14
  Until: 11:00,                           !- Field 15
  0.2,                                    !- Field 16
  Until: 12:00,                           !- Field 17
  0.5,                                    !- Field 18
  Until: 13:00,                           !- Field 19
  0.8,                                    !- Field 20
  Until: 14:00,                           !- Field 21
  0.7,                                    !- Field 22
  Until: 15:00,                           !- Field 23
  0.4,                                    !- Field 24
  Until: 16:00,                           !- Field 25
  0.2,                                    !- Field 26
  Until: 17:00,                           !- Field 27
  0.25,                                   !- Field 28
  Until: 18:00,                           !- Field 29
  0.5,                                    !- Field 30
  Until: 21:00,                           !- Field 31
  0.55,                                   !- Field 32
  Until: 22:00,                           !- Field 33
  0.5,                                    !- Field 34
  Until: 23:00,                           !- Field 35
  0.35,                                   !- Field 36
  Until: 24:00,                           !- Field 37
  0.2,                                    !- Field 38
  For: SummerDesignDay,                   !- Field 39
  Until: 24:00,                           !- Field 40
  1.0,                                    !- Field 41
  For: WinterDesignDay,                   !- Field 42
  Until: 24:00,                           !- Field 43
  0.0,                                    !- Field 44
  For: Saturday Sunday Holidays AllOtherDays, !- Field 45
  Until: 01:00,                           !- Field 46
  0.05,                                   !- Field 47
  Until: 05:00,                           !- Field 48
  0.0,                                    !- Field 49
  Until: 07:00,                           !- Field 50
  0.05,                                   !- Field 51
  Until: 10:00,                           !- Field 52
  0.3,                                    !- Field 53
  Until: 11:00,                           !- Field 54
  0.2,                                    !- Field 55
  Until: 12:00,                           !- Field 56
  0.45,                                   !- Field 57
  Until: 13:00,                           !- Field 58
  0.6,                                    !- Field 59
  Until:14:00,                            !- Field 60
  0.5,                                    !- Field 61
  Until: 15:00,                           !- Field 62
  0.35,                                   !- Field 63
  Until: 18:00,                           !- Field 64
  0.3,                                    !- Field 65
  Until: 21:00,                           !- Field 66
  0.55,                                   !- Field 67
  Until: 22:00,                           !- Field 68
  0.5,                                    !- Field 69
  Until: 23:00,                           !- Field 70
  0.35,                                   !- Field 71
  Until: 24:00,                           !- Field 72
  0.2;                                    !- Field 73

OS:Schedule:Compact,
  {943b2f0a-3681-4348-80b9-ef215d57b7d7}, !- Handle
  Kitchen_Case:1_WALKINFREEZER_CaseDefrost2aDaySched, !- Name
  {3ad19af8-74d0-4d7f-aa27-627aaa5a1758}, !- Schedule Type Limits Name
  Through: 12/31,                         !- Field 1
  For:AllDays,                            !- Field 2
  Interpolate:Yes,                        !- Field 3
  Until: 11:00,                           !- Field 4
  0,                                      !- Field 5
  Until: 11:20,                           !- Field 6
  1,                                      !- Field 7
  Until: 23:00,                           !- Field 8
  0,                                      !- Field 9
  Until: 23:20,                           !- Field 10
  1,                                      !- Field 11
  Until: 24:00,                           !- Field 12
  0;                                      !- Field 13

OS:ScheduleTypeLimits,
  {3ad19af8-74d0-4d7f-aa27-627aaa5a1758}, !- Handle
  On/Off,                                 !- Name
  0,                                      !- Lower Limit Value {BasedOnField A4}
  1,                                      !- Upper Limit Value {BasedOnField A4}
  DISCRETE,                               !- Numeric Type
  Availability;                           !- Unit Type

OS:Meter,
  {410bbf92-cf81-48b8-8336-247cc97f1969}, !- Handle
  Gas:Facility,                           !- Name
  hourly,                                 !- Reporting Frequency
  False,                                  !- Meter File Only
  False;                                  !- Cumulative

OS:Surface,
  {b0eaec95-9e7b-46d2-8eda-67c996cd6580}, !- Handle
  east-roof,                              !- Name
  RoofCeiling,                            !- Surface Type
  {c6c51583-3899-47ec-be3c-30ad1ed27a97}, !- Construction Name
  {ade0023c-38e4-4511-9608-f3b8b676f2bf}, !- Space Name
  Outdoors,                               !- Outside Boundary Condition
  ,                                       !- Outside Boundary Condition Object
  SunExposed,                             !- Sun Exposure
  WindExposed,                            !- Wind Exposure
  ,                                       !- View Factor to Ground
  ,                                       !- Number of Vertices
  12.7023, 7.6214, 2.5405,                !- X,Y,Z Vertex 1 {m}
  15.2428, 0, 0,                          !- X,Y,Z Vertex 2 {m}
  15.2428, 15.2428, 0;                    !- X,Y,Z Vertex 3 {m}

OS:Construction,
  {c6c51583-3899-47ec-be3c-30ad1ed27a97}, !- Handle
  Attic Non-res Roof,                     !- Name
  ,                                       !- Surface Rendering Name
  {b9494a2d-757c-4d95-8e01-f27080b1d4e2}, !- Layer 1
  {b0bf993d-f254-43c2-ac91-d975b6846224}; !- Layer 2

OS:Material,
  {b9494a2d-757c-4d95-8e01-f27080b1d4e2}, !- Handle
  Roof Membrane,                          !- Name
  VeryRough,                              !- Roughness
  0.0095,                                 !- Thickness {m}
  0.16,                                   !- Conductivity {W/m-K}
  1121.29,                                !- Density {kg/m3}
  1460,                                   !- Specific Heat {J/kg-K}
  0.9,                                    !- Thermal Absorptance
  0.7,                                    !- Solar Absorptance
  0.7;                                    !- Visible Absorptance

OS:Material,
  {b0bf993d-f254-43c2-ac91-d975b6846224}, !- Handle
  Metal Decking,                          !- Name
  MediumSmooth,                           !- Roughness
  0.0015,                                 !- Thickness {m}
  45.006,                                 !- Conductivity {W/m-K}
  7680,                                   !- Density {kg/m3}
  418.4,                                  !- Specific Heat {J/kg-K}
  0.9,                                    !- Thermal Absorptance
  0.7,                                    !- Solar Absorptance
  0.3;                                    !- Visible Absorptance

OS:Space,
  {ade0023c-38e4-4511-9608-f3b8b676f2bf}, !- Handle
  attic,                                  !- Name
  {a5c8beac-0f99-4175-886d-3e93246b4d09}, !- Space Type Name
  ,                                       !- Default Construction Set Name
  ,                                       !- Default Schedule Set Name
  0,                                      !- Direction of Relative North {deg}
  0,                                      !- X Origin {m}
  0,                                      !- Y Origin {m}
  3.0488,                                 !- Z Origin {m}
  {ff060808-54e1-4d77-9470-f7e91dbcca54}, !- Building Story Name
  ,                                       !- Thermal Zone Name
  No;                                     !- Part of Total Floor Area

OS:Schedule:Compact,
  {d7e8531b-24c0-4068-a6b7-046cdab0c0c3}, !- Handle
  PlantOnSched,                           !- Name
  {3ad19af8-74d0-4d7f-aa27-627aaa5a1758}, !- Schedule Type Limits Name
  Through: 12/31,                         !- Field 1
  For: AllDays,                           !- Field 2
  Until: 24:00,                           !- Field 3
  1.0;                                    !- Field 4

OS:Schedule:Compact,
  {a80ce712-2d21-471c-8ad0-0759c51112cc}, !- Handle
  HTGSETP_SCH,                            !- Name
  {4db2d58a-d146-4e80-8bbe-28ce9bed67a4}, !- Schedule Type Limits Name
  Through: 12/31,                         !- Field 1
  For: SummerDesignDay,                   !- Field 2
  Until: 24:00,                           !- Field 3
  15.6,                                   !- Field 4
  For: WinterDesignDay,                   !- Field 5
  Until: 24:00,                           !- Field 6
  21,                                     !- Field 7
  For: AllOtherDays,                      !- Field 8
  Until: 01:00,                           !- Field 9
  21,                                     !- Field 10
  Until: 05:00,                           !- Field 11
  15.6,                                   !- Field 12
  Until: 24:00,                           !- Field 13
  21;                                     !- Field 14

OS:SubSurface,
  {b6cda613-b11d-474e-8d29-17793750cae2}, !- Handle
  Dining_Wall_South_Window,               !- Name
  FixedWindow,                            !- Sub Surface Type
  {78c85ef7-e78c-472e-aba7-19a988fbe8bc}, !- Construction Name
  {f128cc92-b989-4efc-965b-cbd9b3aca52e}, !- Surface Name
  ,                                       !- Outside Boundary Condition Object
  ,                                       !- View Factor to Ground
  ,                                       !- Shading Control Name
  ,                                       !- Frame and Divider Name
  1,                                      !- Multiplier
  ,                                       !- Number of Vertices
  0.508, 0, 1.9817,                       !- X,Y,Z Vertex 1 {m}