
OS:Version,
  {05a04bbf-aa4a-4ccb-9de1-ed7064ffe05f}, !- Handle
  1.8.5;                                  !- Version Identifier

OS:Site,
  {9c08affb-d48d-4e76-8f0f-38da8186b69b}, !- Handle
  USA IL-CHICAGO-OHARE,                   !- Name
  41.77,                                  !- Latitude {deg}
  -87.75,                                 !- Longitude {deg}
  -6,                                     !- Time Zone {hr}
  190,                                    !- Elevation {m}
  City;                                   !- Terrain

OS:SimulationControl,
  {5b09c432-31fc-4005-ac9d-f93872a5b05c}, !- Handle
  Yes,                                    !- Do Zone Sizing Calculation
  Yes,                                    !- Do System Sizing Calculation
  Yes,                                    !- Do Plant Sizing Calculation
  No,                                     !- Run Simulation for Sizing Periods
  Yes,                                    !- Run Simulation for Weather File Run Periods
  0.04,                                   !- Loads Convergence Tolerance Value
  0.2,                                    !- Temperature Convergence Tolerance Value {deltaC}
  FullInteriorAndExterior,                !- Solar Distribution
  25,                                     !- Maximum Number of Warmup Days
  6;                                      !- Minimum Number of Warmup Days

OS:Surface,
  {7d8c4110-4f23-4cab-b0b3-c76bef51f3b2}, !- Handle
  Attic_roof_south,                       !- Name
  RoofCeiling,                            !- Surface Type
  {02b0ca9f-9029-4291-9831-941bd2654a48}, !- Construction Name
  {175fe446-53c3-4345-aed2-bdeeaebb99f0}, !- Space Name
  Outdoors,                               !- Outside Boundary Condition
  ,                                       !- Outside Boundary Condition Object
  SunExposed,                             !- Sun Exposure
  WindExposed,                            !- Wind Exposure
  ,                                       !- View Factor to Ground
  ,                                       !- Number of Vertices
  9.23, 9.23, 6.33,                       !- X,Y,Z Vertex 1 {m}
  -0.6, -0.6, 3.05,                       !- X,Y,Z Vertex 2 {m}
  28.29, -0.6, 3.05,                      !- X,Y,Z Vertex 3 {m}
  18.46, 9.23, 6.33;                      !- X,Y,Z Vertex 4 {m}

OS:Construction,
  {02b0ca9f-9029-4291-9831-941bd2654a48}, !- Handle
  Attic Non-res Roof,                     !- Name
  ,                                       !- Surface Rendering Name
  {2c5c8abb-61f1-4cf9-ad46-1547f0fe16e8}, !- Layer 1
  {a6bdba1e-09e7-48e4-9644-a89a835a1090}; !- Layer 2

OS:Material,
  {2c5c8abb-61f1-4cf9-ad46-1547f0fe16e8}, !- Handle
  Roof Membrane,                          !- Name
  VeryRough,                              !- Roughness
  0.0095,                                 !- Thickness {m}
  0.16,                                   !- Conductivity {W/m-K}
  1121.29,                                !- Density {kg/m3}
  1460,                                   !- Specific Heat {J/kg-K}
  0.9,                                    !- Thermal Absorptance
  0.7,                                    !- Solar Absorptance
  0.7;                                    !- Visible Absorptance

OS:Material,
  {a6bdba1e-09e7-48e4-9644-a89a835a1090}, !- Handle
  Metal Decking,                          !- Name
  MediumSmooth,                           !- Roughness
  0.0015,                                 !- Thickness {m}
  45.006,                                 !- Conductivity {W/m-K}
  7680,                                   !- Density {kg/m3}
  418.4,                                  !- Specific Heat {J/kg-K}
  0.9,                                    !- Thermal Absorptance
  0.7,                                    !- Solar Absorptance
  0.3;                                    !- Visible Absorptance

OS:Space,
  {175fe446-53c3-4345-aed2-bdeeaebb99f0}, !- Handle
  Attic,                                  !- Name
  {7d9a971b-4ffd-4814-b02a-fe2119f982dc}, !- Space Type Name
  ,                                       !- Default Construction Set Name
  ,                                       !- Default Schedule Set Name
  0,                                      !- Direction of Relative North {deg}
  0,                                      !- X Origin {m}
  0,                                      !- Y Origin {m}
  0,                                      !- Z Origin {m}
  {ded7e1bb-3e95-414d-a556-3bd261762c56}, !- Building Story Name
  ,                                       !- Thermal Zone Name
  No;                                     !- Part of Total Floor Area

OS:Surface,
  {8a265350-e8d5-415b-9ac7-e02698070c32}, !- Handle
  Attic_floor_core,                       !- Name
  Floor,                                  !- Surface Type
  {16aca31b-1fb3-4c3f-aece-9cfeeab6df26}, !- Construction Name
  {175fe446-53c3-4345-aed2-bdeeaebb99f0}, !- Space Name
  Surface,                                !- Outside Boundary Condition
  {b43b806a-6e81-4195-8071-0dd23350b2d9}, !- Outside Boundary Condition Object
  NoSun,                                  !- Sun Exposure
  NoWind,                                 !- Wind Exposure
  ,                                       !- View Factor to Ground
  ,                                       !- Number of Vertices
  22.69, 13.46, 3.05,                     !- X,Y,Z Vertex 1 {m}
  22.69, 5, 3.05,                         !- X,Y,Z Vertex 2 {m}
  5, 5, 3.05,                             !- X,Y,Z Vertex 3 {m}
  5, 13.46, 3.05;                         !- X,Y,Z Vertex 4 {m}

OS:Construction,
  {16aca31b-1fb3-4c3f-aece-9cfeeab6df26}, !- Handle
  Attic Non-res Floor,                    !- Name
  ,                                       !- Surface Rendering Name
  {db1b70f7-c6f3-4d61-9a64-4a8cd7723b08}, !- Layer 1
  {0f234856-e427-46cc-8623-b4fbf149f613}, !- Layer 2
  {db1b70f7-c6f3-4d61-9a64-4a8cd7723b08}; !- Layer 3

OS:Material,
  {db1b70f7-c6f3-4d61-9a64-4a8cd7723b08}, !- Handle
  1/2IN Gypsum,                           !- Name
  Smooth,                                 !- Roughness
  0.0127,                                 !- Thickness {m}
  0.16,                                   !- Conductivity {W/m-K}
  784.9,                                  !- Density {kg/m3}
  830,                                    !- Specific Heat {J/kg-K}
  0.9,                                    !- Thermal Absorptance
  0.92,                                   !- Solar Absorptance
  0.92;                                   !- Visible Absorptance

OS:Material,
  {0f234856-e427-46cc-8623-b4fbf149f613}, !- Handle
  AtticFloor NonRes Insulation,           !- Name
  MediumRough,                            !- Roughness
  0.236804989096202,                      !- Thickness {m}
  0.049,                                  !- Conductivity {W/m-K}
  265,                                    !- Density {kg/m3}
  836.8,                                  !- Specific Heat {J/kg-K}
  0.9,                                    !- Thermal Absorptance
  0.7,                                    !- Solar Absorptance
  0.7;                                    !- Visible Absorptance

OS:Schedule:Compact,
  {a0aabea5-8824-4b41-b092-5901778bee33}, !- Handle
  SWHSys1 Water Heater Setpoint Temperature Schedule Name, !- Name
  {1562b9a0-adbc-4b59-ad42-f95eb54ba322}, !- Schedule Type Limits Name
  Through: 12/31,                         !- Field 1
  For: AllDays,                           !- Field 2
  Until: 24:00,                           !- Field 3
  60.0;                                   !- Field 4

OS:ScheduleTypeLimits,
  {1562b9a0-adbc-4b59-ad42-f95eb54ba322}, !- Handle
  Temperature,                            !- Name
  -60,                                    !- Lower Limit Value {BasedOnField A4}
  200,                                    !- Upper Limit Value {BasedOnField A4}
  CONTINUOUS,                             !- Numeric Type
  Temperature;                            !- Unit Type

OS:SubSurface,
  {d47c38b8-9ef4-42fd-abd0-651381a23838}, !- Handle
  Perimeter_ZN_2_wall_east_Window_1,      !- Name
  FixedWindow,                            !- Sub Surface Type
  {bdc6abac-4fd2-4ea1-a23e-fcb451097f91}, !- Construction Name
  {8d09356a-58c2-49b3-be2f-0c130086fe49}, !- Surface Name
  ,                                       !- Outside Boundary Condition Object
  ,                                       !- View Factor to Ground
  ,                                       !- Shading Control Name
  ,                                       !- Frame and Divider Name
  1,                                      !- Multiplier
  ,                                       !- Number of Vertices
  27.69, 1.39, 2.424,                     !- X,Y,Z Vertex 1 {m}
  27.69, 1.39, 0.9,                       !- X,Y,Z Vertex 2 {m}
  27.69, 3.22, 0.9,                       !- X,Y,Z Vertex 3 {m}
  27.69, 3.22, 2.424;                     !- X,Y,Z Vertex 4 {m}

OS:Construction,
  {bdc6abac-4fd2-4ea1-a23e-fcb451097f91}, !- Handle
  Window Non-res Fixed,                   !- Name
  ,                                       !- Surface Rendering Name
  {d924dccf-f121-4bd2-8120-5936de7f7726}; !- Layer 1

OS:WindowMaterial:SimpleGlazingSystem,
  {d924dccf-f121-4bd2-8120-5936de7f7726}, !- Handle
  NonRes Fixed Assembly Window,           !- Name
  3.23646,                                !- U-Factor {W/m2-K}
  0.39;                                   !- Solar Heat Gain Coefficient

OS:Surface,
  {8d09356a-58c2-49b3-be2f-0c130086fe49}, !- Handle
  Perimeter_ZN_2_wall_east,               !- Name
  Wall,                                   !- Surface Type
  {464f7e83-d35c-4099-a7f6-61d43f360727}, !- Construction Name
  {1f26fa43-4915-43ca-954b-7062c485174b}, !- Space Name
  Outdoors,                               !- Outside Boundary Condition
  ,                                       !- Outside Boundary Condition Object
  SunExposed,                             !- Sun Exposure
  WindExposed,                            !- Wind Exposure
  ,                                       !- View Factor to Ground
  ,                                       !- Number of Vertices
  27.69, 0, 3.05,                         !- X,Y,Z Vertex 1 {m}
  27.69, 0, 0,                            !- X,Y,Z Vertex 2 {m}
  27.69, 18.46, 0,                        !- X,Y,Z Vertex 3 {m}
  27.69, 18.46, 3.05;                     !- X,Y,Z Vertex 4 {m}

OS:Construction,
  {464f7e83-d35c-4099-a7f6-61d43f360727}, !- Handle
  Mass Non-res Ext Wall,                  !- Name
  ,                                       !- Surface Rendering Name
  {bdde1bc2-a8b3-4f4a-bb34-70455310af0d}, !- Layer 1
  {cea63d57-34ce-4fc8-9fb8-968a1536b84a}, !- Layer 2
  {d0ae5436-716e-48f6-b1db-e5ca997dc6b0}, !- Layer 3
  {db1b70f7-c6f3-4d61-9a64-4a8cd7723b08}; !- Layer 4

OS:Material,
  {bdde1bc2-a8b3-4f4a-bb34-70455310af0d}, !- Handle
  1IN Stucco,                             !- Name
  Smooth,                                 !- Roughness
  0.0253,                                 !- Thickness {m}
  0.6918,                                 !- Conductivity {W/m-K}
  1858,                                   !- Density {kg/m3}
  837,                                    !- Specific Heat {J/kg-K}
  0.9,                                    !- Thermal Absorptance
  0.92,                                   !- Solar Absorptance
  0.92;                                   !- Visible Absorptance

OS:Material,
  {cea63d57-34ce-4fc8-9fb8-968a1536b84a}, !- Handle
  8IN CONCRETE HW,                        !- Name
  Rough,                                  !- Roughness
  0.2032,                                 !- Thickness {m}
  1.311,                                  !- Conductivity {W/m-K}
  2240,                                   !- Density {kg/m3}
  836.8,                                  !- Specific Heat {J/kg-K}
  0.9,                                    !- Thermal Absorptance
  0.7,                                    !- Solar Absorptance
  0.7;                                    !- Visible Absorptance

OS:Material,
  {d0ae5436-716e-48f6-b1db-e5ca997dc6b0}, !- Handle
  Mass NonRes Wall Insulation,            !- Name
  MediumRough,                            !- Roughness
  0.0495494599433393,                     !- Thickness {m}
  0.049,                                  !- Conductivity {W/m-K}
  265,                                    !- Density {kg/m3}
  836.8,                                  !- Specific Heat {J/kg-K}
  0.9,                                    !- Thermal Absorptance
  0.7,                                    !- Solar Absorptance
  0.7;                                    !- Visible Absorptance

OS:Space,
  {1f26fa43-4915-43ca-954b-7062c485174b}, !- Handle
  Perimeter_ZN_2,                         !- Name
  {ae5654ca-db14-41a6-8600-1de62aa37af7}, !- Space Type Name
  ,                                       !- Default Construction Set Name
  ,                                       !- Default Schedule Set Name
  0,                                      !- Direction of Relative North {deg}
  0,                                      !- X Origin {m}
  0,                                      !- Y Origin {m}
  0,                                      !- Z Origin {m}
  {ded7e1bb-3e95-414d-a556-3bd261762c56}, !- Building Story Name
  {f864eeca-9072-4e06-bbdb-afca09e4554e}, !- Thermal Zone Name
  Yes,                                    !- Part of Total Floor Area
  {f14a1692-4eef-4adc-9719-0c1e5576d0ba}; !- Design Specification Outdoor Air Object Name

OS:Schedule:Compact,
  {e06391a8-3cd1-4808-b5f0-ecef07ff695d}, !- Handle
  HTGSETP_SCH,                            !- Name
  {1562b9a0-adbc-4b59-ad42-f95eb54ba322}, !- Schedule Type Limits Name
  Through: 12/31,                         !- Field 1
  For: Weekdays,                          !- Field 2
  Until: 06:00,                           !- Field 3
  15.6,                                   !- Field 4
  Until: 22:00,                           !- Field 5
  21.0,                                   !- Field 6
  Until: 24:00,                           !- Field 7
  15.6,                                   !- Field 8
  For: Saturday,                          !- Field 9
  Until: 06:00,                           !- Field 10
  15.6,                                   !- Field 11
  Until: 18:00,                           !- Field 12
  21.0,                                   !- Field 13
  Until: 24:00,                           !- Field 14
  15.6,                                   !- Field 15
  For: WinterDesignDay,                   !- Field 16
  Until: 24:00,                           !- Field 17
  21.0,                                   !- Field 18
  For: AllOtherDays,                      !- Field 19
  Until: 24:00,                           !- Field 20
  15.6;                                   !- Field 21

OS:Schedule:Compact,
  {1d6c3aa7-38ec-4519-9487-f61e0bbdba4c}, !- Handle
  CLGSETP_SCH,                            !- Name
  {1562b9a0-adbc-4b59-ad42-f95eb54ba322}, !- Schedule Type Limits Name
  Through: 12/31,                         !- Field 1
  For: Weekdays SummerDesignDay,          !- Field 2
  Until: 06:00,                           !- Field 3
  26.7,                                   !- Field 4
  Until: 22:00,                           !- Field 5
  24.0,                                   !- Field 6
  Until: 24:00,                           !- Field 7
  26.7,                                   !- Field 8
  For: Saturday,                          !- Field 9
  Until: 06:00,                           !- Field 10
  26.7,                                   !- Field 11
  Until: 18:00,                           !- Field 12
  24.0,                                   !- Field 13
  Until: 24:00,                           !- Field 14
  26.7,                                   !- Field 15
  For: AllOtherDays,                      !- Field 16
  Until: 24:00,                           !- Field 17
  26.7;                                   !- Field 18

OS:Meter,
  {01162192-5292-47b7-b004-29b9b0e53e5e}, !- Handle
  HeatRejection:Electricity,              !- Name
  hourly,                                 !- Reporting Frequency
  False,                                  !- Meter File Only
  False;                                  !- Cumulative

OS:Surface,
  {dbee1e09-f1f8-4c7c-8711-5a2752a3ddbf}, !- Handle
  Perimeter_ZN_4_wall_east,               !- Name
  Wall,                                   !- Surface Type
  {bb735bd0-31af-4414-9141-05f2df10b944}, !- Construction Name
  {4b2c464f-11d3-413c-a7b3-83e096349029}, !- Space Name
  Surface,                                !- Outside Boundary Condition
  {73f0befe-6405-458b-9094-0812eb0fc47f}, !- Outside Boundary Condition Object
  NoSun,                                  !- Sun Exposure
  NoWind,                                 !- Wind Exposure
  ,                                       !- View Factor to Ground
  ,                                       !- Number of Vertices
  5, 5, 3.05,                             !- X,Y,Z Vertex 1 {m}
  5, 5, 0,                                !- X,Y,Z Vertex 2 {m}
  5, 13.46, 0,                            !- X,Y,Z Vertex 3 {m}
  5, 13.46, 3.05;                         !- X,Y,Z Vertex 4 {m}

OS:Construction,
  {bb735bd0-31af-4414-9141-05f2df10b944}, !- Handle
  int-walls,                              !- Name
  ,                                       !- Surface Rendering Name
  {db1b70f7-c6f3-4d61-9a64-4a8cd7723b08}, !- Layer 1
  {db1b70f7-c6f3-4d61-9a64-4a8cd7723b08}; !- Layer 2

OS:Space,
  {4b2c464f-11d3-413c-a7b3-83e096349029}, !- Handle
  Perimeter_ZN_4,                         !- Name
  {ae5654ca-db14-41a6-8600-1de62aa37af7}, !- Space Type Name
  ,                                       !- Default Construction Set Name
  ,                                       !- Default Schedule Set Name
  0,                                      !- Direction of Relative North {deg}
  0,                                      !- X Origin {m}
  0,                                      !- Y Origin {m}
  0,                                      !- Z Origin {m}
  {ded7e1bb-3e95-414d-a556-3bd261762c56}, !- Building Story Name
  {756a666a-1a4f-49f1-8602-d2f97db36800}, !- Thermal Zone Name
  Yes,                                    !- Part of Total Floor Area
  {6f63c693-1544-4f75-993c-8bb9233f0f83}; !- Design Specification Outdoor Air Object Name

OS:Surface,
  {75909c43-2e01-4805-af29-18e702d78741}, !- Handle
  Perimeter_ZN_2_ceiling,                 !- Name
  RoofCeiling,                            !- Surface Type
  {16aca31b-1fb3-4c3f-aece-9cfeeab6df26}, !- Construction Name
  {1f26fa43-4915-43ca-954b-7062c485174b}, !- Space Name
  Surface,                                !- Outside Boundary Condition
  {7f57a106-3dde-45cd-9431-1c67393605d1}, !- Outside Boundary Condition Object
  NoSun,                                  !- Sun Exposure
  NoWind,                                 !- Wind Exposure
  ,                                       !- View Factor to Ground
  ,                                       !- Number of Vertices
  27.69, 0, 3.05,                         !- X,Y,Z Vertex 1 {m}
  27.69, 18.46, 3.05,                     !- X,Y,Z Vertex 2 {m}
  22.69, 13.46, 3.05,                     !- X,Y,Z Vertex 3 {m}
  22.69, 5, 3.05;                         !- X,Y,Z Vertex 4 {m}

OS:Surface,
  {2f3fad18-91af-4d8a-9899-3afb6150d577}, !- Handle
  Perimeter_ZN_4_ceiling,                 !- Name
  RoofCeiling,                            !- Surface Type
  {16aca31b-1fb3-4c3f-aece-9cfeeab6df26}, !- Construction Name
  {4b2c464f-11d3-413c-a7b3-83e096349029}, !- Space Name
  Surface,                                !- Outside Boundary Condition
  {e9db06ce-6234-4e77-9e78-7b40b73b9ca0}, !- Outside Boundary Condition Object
  NoSun,                                  !- Sun Exposure
  NoWind,                                 !- Wind Exposure
  ,                                       !- View Factor to Ground
  ,                                       !- Number of Vertices
  0, 0, 3.05,                             !- X,Y,Z Vertex 1 {m}
  5, 5, 3.05,                             !- X,Y,Z Vertex 2 {m}
  5, 13.46, 3.05,                         !- X,Y,Z Vertex 3 {m}
  0, 18.46, 3.05;                         !- X,Y,Z Vertex 4 {m}

OS:Schedule:Compact,
  {821e51ec-b2c1-47cb-b5ca-e00cce404c35}, !- Handle
  AIR_VELO_SCH,                           !- Name
  ,                                       !- Schedule Type Limits Name
  Through: 12/31,                         !- Field 1
  For: AllDays,                           !- Field 2
  Until: 24:00,                           !- Field 3
  0.2;                                    !- Field 4

OS:ScheduleTypeLimits,
  {80cbadce-3808-45bd-94cf-d7c9a1872773}, !- Handle
  {2d5fade0-9256-4ded-b189-bbe8ae1d2605}; !- Name

OS:DesignSpecification:OutdoorAir,
  {f14a1692-4eef-4adc-9719-0c1e5576d0ba}, !- Handle
  SZ DSOA Perimeter_ZN_2,                 !- Name
  ,                                       !- Outdoor Air Method
  0.01,                                   !- Outdoor Air Flow per Person {m3/s-person}
  ,                                       !- Outdoor Air Flow per Floor Area {m3/s-m2}
  ,                                       !- Outdoor Air Flow Rate {m3/s}
  ,                                       !- Outdoor Air Flow Air Changes per Hour {1/hr}
  ;                                       !- Outdoor Air Flow Rate Fraction Schedule Name

OS:Timestep,
  {36da94f5-8b03-4961-bc40-673242148833}, !- Handle
  6;                                      !- Number of Timesteps per Hour

OS:Lights:Definition,
  {85820a4d-77a2-4aed-81d2-310065a4bcbe}, !- Handle
  Perimeter_ZN_3_Lights Definition,       !- Name
  Watts/Area,                             !- Design Level Calculation Method
  ,                                       !- Lighting Level {W}
  10.76,                                  !- Watts per Space Floor Area {W/m2}
  ,                                       !- Watts per Person {W/person}
  0.7,                                    !- Fraction Radiant
  0.2,                                    !- Fraction Visible
  0,                                      !- Return Air Fraction
  No;                                     !- Return Air Fraction Calculated from Plenum Temperature

OS:Lights,
  {de1d1b2a-5a76-4bf3-b6c7-a69937aa6f1e}, !- Handle
  Perimeter_ZN_3_Lights,                  !- Name
  {85820a4d-77a2-4aed-81d2-310065a4bcbe}, !- Lights Definition Name
  {571d083a-7402-4d30-941a-c8b02b64f589}, !- Space or SpaceType Name
  {9f5d75b9-cba9-4931-a667-4288874365f1}, !- Schedule Name
  1,                                      !- Fraction Replaceable
  ,                                       !- Multiplier
  General;                                !- End-Use Subcategory

OS:Space,
  {571d083a-7402-4d30-941a-c8b02b64f589}, !- Handle
  Perimeter_ZN_3,                         !- Name
  {ae5654ca-db14-41a6-8600-1de62aa37af7}, !- Space Type Name
  ,                                       !- Default Construction Set Name
  ,                                       !- Default Schedule Set Name
  0,                                      !- Direction of Relative North {deg}
  0,                                      !- X Origin {m}
  0,                                      !- Y Origin {m}
  0,                                      !- Z Origin {m}
  {ded7e1bb-3e95-414d-a556-3bd261762c56}, !- Building Story Name
  {3b8a8963-9835-4663-a519-85aadf73263c}, !- Thermal Zone Name
  Yes,                                    !- Part of Total Floor Area
  {d59770bc-dfd4-4e3d-ba86-5895f96ba028}; !- Design Specification Outdoor Air Object Name

OS:Schedule:Compact,
  {9f5d75b9-cba9-4931-a667-4288874365f1}, !- Handle
  BLDG_LIGHT_SCH,                         !- Name
  {06efde57-b583-4ea4-b6a7-2acc4f976349}, !- Schedule Type Limits Name
  Through: 12/31,                         !- Field 1
  For: Weekdays,                          !- Field 2
  Until: 05:00,                           !- Field 3
  0.05,                                   !- Field 4
  Until: 07:00,                           !- Field 5
  0.1,                                    !- Field 6
  Until: 08:00,                           !- Field 7
  0.3,                                    !- Field 8
  Until: 17:00,                           !- Field 9
  0.9,                                    !- Field 10
  Until: 18:00,                           !- Field 11
  0.5,                                    !- Field 12
  Until: 20:00,                           !- Field 13
  0.3,                                    !- Field 14
  Until: 22:00,                           !- Field 15
  0.2,                                    !- Field 16
  Until: 23:00,                           !- Field 17
  0.1,                                    !- Field 18
  Until: 24:00,                           !- Field 19
  0.05,                                   !- Field 20
  For: Saturday,                          !- Field 21
  Until: 06:00,                           !- Field 22
  0.05,                                   !- Field 23
  Until: 08:00,                           !- Field 24
  0.1,                                    !- Field 25
  Until: 12:00,                           !- Field 26
  0.3,                                    !- Field 27
  Until: 17:00,                           !- Field 28
  0.15,                                   !- Field 29
  Until: 24:00,                           !- Field 30
  0.05,                                   !- Field 31
  For: SummerDesignDay,                   !- Field 32
  Until: 24:00,                           !- Field 33
  1.0,                                    !- Field 34
  For: WinterDesignDay,                   !- Field 35
  Until: 24:00,                           !- Field 36
  0.0,                                    !- Field 37
  For: AllOtherDays,                      !- Field 38
  Until: 24:00,                           !- Field 39
  0.05;                                   !- Field 40

OS:ScheduleTypeLimits,
  {06efde57-b583-4ea4-b6a7-2acc4f976349}, !- Handle
  Fraction,                               !- Name
  0,                                      !- Lower Limit Value {BasedOnField A4}
  1,                                      !- Upper Limit Value {BasedOnField A4}
  CONTINUOUS;                             !- Numeric Type

OS:ConvergenceLimits,
  {098d0311-a68b-488e-be47-dbb2c7c84d6a}, !- Handle
  2,                                      !- Minimum System Timestep {minutes}
  25;                                     !- Maximum HVAC Iterations

OS:Lights:Definition,
  {b968ea28-1d06-4a15-a9dd-bd8ed53fd4f7}, !- Handle
  Perimeter_ZN_1_Lights Definition,       !- Name
  Watts/Area,                             !- Design Level Calculation Method
  ,                                       !- Lighting Level {W}
  10.76,                                  !- Watts per Space Floor Area {W/m2}
  ,                                       !- Watts per Person {W/person}
  0.7,                                    !- Fraction Radiant
  0.2,                                    !- Fraction Visible
  0,                                      !- Return Air Fraction
  No;                                     !- Return Air Fraction Calculated from Plenum Temperature

OS:Lights,
  {39af77ed-d7bf-4e6c-a25e-328845e568de}, !- Handle
  Perimeter_ZN_1_Lights,                  !- Name
  {b968ea28-1d06-4a15-a9dd-bd8ed53fd4f7}, !- Lights Definition Name
  {59a0c1a2-d996-4ff0-adb7-66f264995990}, !- Space or SpaceType Name
  {9f5d75b9-cba9-4931-a667-4288874365f1}, !- Schedule Name
  1,                                      !- Fraction Replaceable
  ,                                       !- Multiplier
  General;                                !- End-Use Subcategory

OS:Space,
  {59a0c1a2-d996-4ff0-adb7-66f264995990}, !- Handle
  Perimeter_ZN_1,                         !- Name
  {ae5654ca-db14-41a6-8600-1de62aa37af7}, !- Space Type Name
  ,                                       !- Default Construction Set Name
  ,                                       !- Default Schedule Set Name
  0,                                      !- Direction of Relative North {deg}
  0,                                      !- X Origin {m}
  0,                                      !- Y Origin {m}
  0,                                      !- Z Origin {m}
  {ded7e1bb-3e95-414d-a556-3bd261762c56}, !- Building Story Name
  {a579ea99-44bb-4724-991d-b97f152b50fd}, !- Thermal Zone Name
  Yes,                                    !- Part of Total Floor Area
  {39b70cb0-7c82-492e-8db4-7ea8bfee84cf}; !- Design Specification Outdoor Air Object Name

OS:Space,
  {4ec996f3-708b-4208-bdcb-4d0892fbab92}, !- Handle
  Core_ZN,                                !- Name
  {ae5654ca-db14-41a6-8600-1de62aa37af7}, !- Space Type Name
  ,                                       !- Default Construction Set Name
  ,                                       !- Default Schedule Set Name
  0,                                      !- Direction of Relative North {deg}
  0,                                      !- X Origin {m}
  0,                                      !- Y Origin {m}
  0,                                      !- Z Origin {m}
  {ded7e1bb-3e95-414d-a556-3bd261762c56}, !- Building Story Name
  {e251b5d1-c90b-49c0-ace6-93fc6788e9b3}, !- Thermal Zone Name
  Yes,                                    !- Part of Total Floor Area
  {8e56e693-9b4e-4cba-b4c3-ccaa659b55df}; !- Design Specification Outdoor Air Object Name

OS:DesignSpecification:OutdoorAir,
  {8e56e693-9b4e-4cba-b4c3-ccaa659b55df}, !- Handle
  SZ DSOA Core_ZN,                        !- Name
  ,                                       !- Outdoor Air Method
  0.01,                                   !- Outdoor Air Flow per Person {m3/s-person}
  ,                                       !- Outdoor Air Flow per Floor Area {m3/s-m2}
  ,                                       !- Outdoor Air Flow Rate {m3/s}