
OS:Version,
  {811c34ae-52c7-4d8c-878b-788b12c33168}, !- Handle
  1.8.5;                                  !- Version Identifier

OS:Site,
  {7afc7358-765e-466e-aa99-319a7ade211d}, !- Handle
  USA IL-CHICAGO-OHARE,                   !- Name
  41.77,                                  !- Latitude {deg}
  -87.75,                                 !- Longitude {deg}
  -6,                                     !- Time Zone {hr}
  190,                                    !- Elevation {m}
  City;                                   !- Terrain

OS:SimulationControl,
  {a1564143-2f66-4867-8474-fd06c36a28f0}, !- Handle
  Yes,                                    !- Do Zone Sizing Calculation
  Yes,                                    !- Do System Sizing Calculation
  Yes,                                    !- Do Plant Sizing Calculation
  No,                                     !- Run Simulation for Sizing Periods
  Yes,                                    !- Run Simulation for Weather File Run Periods
  0.04,                                   !- Loads Convergence Tolerance Value
  0.2,                                    !- Temperature Convergence Tolerance Value {deltaC}
  FullInteriorAndExterior,                !- Solar Distribution
  25,                                     !- Maximum Number of Warmup Days
  6;                                      !- Minimum Number of Warmup Days

OS:Surface,
  {b0fdaef5-0c58-4f7b-b7db-7f14ff971d0e}, !- Handle
  Perimeter_ZN_1_wall_west,               !- Name
  Wall,                                   !- Surface Type
  {1fecc541-7756-4a91-a2bd-293661f497eb}, !- Construction Name
  {3b43bd4f-a883-4928-bdb2-208ee20f387c}, !- Space Name
  Surface,                                !- Outside Boundary Condition
  {92d03e71-fd93-4513-9095-c656db49cad0}, !- Outside Boundary Condition Object
  NoSun,                                  !- Sun Exposure
  NoWind,                                 !- Wind Exposure
  ,                                       !- View Factor to Ground
  ,                                       !- Number of Vertices
  5, 5, 3.05,                             !- X,Y,Z Vertex 1 {m}
  5, 5, 0,                                !- X,Y,Z Vertex 2 {m}
  0, 0, 0,                                !- X,Y,Z Vertex 3 {m}
  0, 0, 3.05;                             !- X,Y,Z Vertex 4 {m}

OS:Construction,
  {1fecc541-7756-4a91-a2bd-293661f497eb}, !- Handle
  int-walls,                              !- Name
  ,                                       !- Surface Rendering Name
  {a1d22088-0b4a-4b06-8493-93c2126bad8b}, !- Layer 1
  {a1d22088-0b4a-4b06-8493-93c2126bad8b}; !- Layer 2

OS:Material,
  {a1d22088-0b4a-4b06-8493-93c2126bad8b}, !- Handle
  1/2IN Gypsum,                           !- Name
  Smooth,                                 !- Roughness
  0.0127,                                 !- Thickness {m}
  0.16,                                   !- Conductivity {W/m-K}
  784.9,                                  !- Density {kg/m3}
  830,                                    !- Specific Heat {J/kg-K}
  0.9,                                    !- Thermal Absorptance
  0.92,                                   !- Solar Absorptance
  0.92;                                   !- Visible Absorptance

OS:Space,
  {3b43bd4f-a883-4928-bdb2-208ee20f387c}, !- Handle
  Perimeter_ZN_1,                         !- Name
  {b717e1ce-fda9-4de1-ae1c-523ceb2cadc5}, !- Space Type Name
  ,                                       !- Default Construction Set Name
  ,                                       !- Default Schedule Set Name
  0,                                      !- Direction of Relative North {deg}
  0,                                      !- X Origin {m}
  0,                                      !- Y Origin {m}
  0,                                      !- Z Origin {m}
  {cb3089aa-77ef-4540-b89f-1e59d30c7af8}, !- Building Story Name
  {d43be459-69d3-4602-b135-75aa23af631e}, !- Thermal Zone Name
  Yes,                                    !- Part of Total Floor Area
  {92660026-e24a-4ab5-92b2-30ca8f689b8a}; !- Design Specification Outdoor Air Object Name

OS:Schedule:Compact,
  {78f2de92-b9e5-4283-bb0a-491fdacfdf7a}, !- Handle
  HTGSETP_SCH,                            !- Name
  {1bbbc201-7e5b-48a4-9d0c-3a8fe3d2b208}, !- Schedule Type Limits Name
  Through: 12/31,                         !- Field 1
  For: Weekdays,                          !- Field 2
  Until: 06:00,                           !- Field 3
  15.6,                                   !- Field 4
  Until: 22:00,                           !- Field 5
  21.0,                                   !- Field 6
  Until: 24:00,                           !- Field 7
  15.6,                                   !- Field 8
  For: Saturday,                          !- Field 9
  Until: 06:00,                           !- Field 10
  15.6,                                   !- Field 11
  Until: 18:00,                           !- Field 12
  21.0,                                   !- Field 13
  Until: 24:00,                           !- Field 14
  15.6,                                   !- Field 15
  For: WinterDesignDay,                   !- Field 16
  Until: 24:00,                           !- Field 17
  21.0,                                   !- Field 18
  For: AllOtherDays,                      !- Field 19
  Until: 24:00,                           !- Field 20
  15.6;                                   !- Field 21

OS:ScheduleTypeLimits,
  {1bbbc201-7e5b-48a4-9d0c-3a8fe3d2b208}, !- Handle
  Temperature,                            !- Name
  -60,                                    !- Lower Limit Value {BasedOnField A4}
  200,                                    !- Upper Limit Value {BasedOnField A4}
  CONTINUOUS,                             !- Numeric Type
  Temperature;                            !- Unit Type

OS:Schedule:Compact,
  {5a8e4cc3-0125-4108-8608-0b39a646c948}, !- Handle
  CLGSETP_SCH,                            !- Name
  {1bbbc201-7e5b-48a4-9d0c-3a8fe3d2b208}, !- Schedule Type Limits Name
  Through: 12/31,                         !- Field 1
  For: Weekdays SummerDesignDay,          !- Field 2
  Until: 06:00,                           !- Field 3
  26.7,                                   !- Field 4
  Until: 22:00,                           !- Field 5
  24.0,                                   !- Field 6
  Until: 24:00,                           !- Field 7
  26.7,                                   !- Field 8
  For: Saturday,                          !- Field 9
  Until: 06:00,                           !- Field 10
  26.7,                                   !- Field 11
  Until: 18:00,                           !- Field 12
  24.0,                                   !- Field 13
  Until: 24:00,                           !- Field 14
  26.7,                                   !- Field 15
  For: AllOtherDays,                      !- Field 16
  Until: 24:00,                           !- Field 17
  26.7;                                   !- Field 18

OS:Construction,
  {a97ec27a-f726-4d59-b6cc-50ab33e7be0d}, !- Handle
  AIR-WALL,                               !- Name
  ,                                       !- Surface Rendering Name
  {20561a10-0b32-4be7-ad8c-78c49a4ddf2d}; !- Layer 1

OS:Material:NoMass,
  {20561a10-0b32-4be7-ad8c-78c49a4ddf2d}, !- Handle
  MAT-AIR-WALL,                           !- Name
  Rough,                                  !- Roughness
  0.2079491,                              !- Thermal Resistance {m2-K/W}
  0.9,                                    !- Thermal Absorptance
  0.7;                                    !- Solar Absorptance

OS:Schedule:Compact,
  {3f30f4da-87d1-450c-aa90-ec58d7bf17f0}, !- Handle
  AIR_VELO_SCH,                           !- Name
  ,                                       !- Schedule Type Limits Name
  Through: 12/31,                         !- Field 1
  For: AllDays,                           !- Field 2
  Until: 24:00,                           !- Field 3
  0.2;                                    !- Field 4

OS:ScheduleTypeLimits,
  {3976c7e2-3d72-4ff1-8f9b-48253d944c27}, !- Handle
  {1d7245db-c6f8-4fc7-bb31-2fd27cc46b21}; !- Name

OS:Surface,
  {80ae6001-dccc-4cc7-ba29-e1d5f35091db}, !- Handle
  Perimeter_ZN_3_wall_south,              !- Name
  Wall,                                   !- Surface Type
  {1fecc541-7756-4a91-a2bd-293661f497eb}, !- Construction Name
  {50e5b927-1066-4f1e-9766-76535628ff5a}, !- Space Name
  Surface,                                !- Outside Boundary Condition
  {d475a773-9d70-4562-a743-f254d999e830}, !- Outside Boundary Condition Object
  NoSun,                                  !- Sun Exposure
  NoWind,                                 !- Wind Exposure
  ,                                       !- View Factor to Ground
  ,                                       !- Number of Vertices
  5, 13.46, 3.05,                         !- X,Y,Z Vertex 1 {m}
  5, 13.46, 0,                            !- X,Y,Z Vertex 2 {m}
  22.69, 13.46, 0,                        !- X,Y,Z Vertex 3 {m}
  22.69, 13.46, 3.05;                     !- X,Y,Z Vertex 4 {m}

OS:Space,
  {50e5b927-1066-4f1e-9766-76535628ff5a}, !- Handle
  Perimeter_ZN_3,                         !- Name
  {b717e1ce-fda9-4de1-ae1c-523ceb2cadc5}, !- Space Type Name
  ,                                       !- Default Construction Set Name
  ,                                       !- Default Schedule Set Name
  0,                                      !- Direction of Relative North {deg}
  0,                                      !- X Origin {m}
  0,                                      !- Y Origin {m}
  0,                                      !- Z Origin {m}
  {cb3089aa-77ef-4540-b89f-1e59d30c7af8}, !- Building Story Name
  {c0ff6d9a-99ad-4f8b-b58c-f0f11362d157}, !- Thermal Zone Name
  Yes,                                    !- Part of Total Floor Area
  {665531ba-610d-4994-9ec3-4d4598056201}; !- Design Specification Outdoor Air Object Name

OS:Surface,
  {e5fe531c-57ad-4e58-8bb9-c6181d91d8bb}, !- Handle
  Attic_soffit_north,                     !- Name
  Floor,                                  !- Surface Type
  {48517cbd-aaa4-42f6-8097-dc918a8b4046}, !- Construction Name
  {dcb9499c-0227-4325-993e-981a6717c4d7}, !- Space Name
  Outdoors,                               !- Outside Boundary Condition
  ,                                       !- Outside Boundary Condition Object
  SunExposed,                             !- Sun Exposure
  WindExposed,                            !- Wind Exposure
  ,                                       !- View Factor to Ground
  ,                                       !- Number of Vertices
  28.29, 19.06, 3.05,                     !- X,Y,Z Vertex 1 {m}
  27.69, 18.46, 3.05,                     !- X,Y,Z Vertex 2 {m}
  0, 18.46, 3.05,                         !- X,Y,Z Vertex 3 {m}
  -0.6, 19.06, 3.05;                      !- X,Y,Z Vertex 4 {m}

OS:Construction,
  {48517cbd-aaa4-42f6-8097-dc918a8b4046}, !- Handle
  Attic Non-res Floor,                    !- Name
  ,                                       !- Surface Rendering Name
  {a1d22088-0b4a-4b06-8493-93c2126bad8b}, !- Layer 1
  {f35f0c16-f04d-426b-8253-aae4187c584a}, !- Layer 2
  {a1d22088-0b4a-4b06-8493-93c2126bad8b}; !- Layer 3

OS:Material,
  {f35f0c16-f04d-426b-8253-aae4187c584a}, !- Handle
  AtticFloor NonRes Insulation,           !- Name
  MediumRough,                            !- Roughness
  0.236804989096202,                      !- Thickness {m}
  0.049,                                  !- Conductivity {W/m-K}
  265,                                    !- Density {kg/m3}
  836.8,                                  !- Specific Heat {J/kg-K}
  0.9,                                    !- Thermal Absorptance
  0.7,                                    !- Solar Absorptance
  0.7;                                    !- Visible Absorptance

OS:Space,
  {dcb9499c-0227-4325-993e-981a6717c4d7}, !- Handle
  Attic,                                  !- Name
  {906aca0b-1525-4202-bc3f-2283be29f64a}, !- Space Type Name
  ,                                       !- Default Construction Set Name
  ,                                       !- Default Schedule Set Name
  0,                                      !- Direction of Relative North {deg}
  0,                                      !- X Origin {m}
  0,                                      !- Y Origin {m}
  0,                                      !- Z Origin {m}
  {cb3089aa-77ef-4540-b89f-1e59d30c7af8}, !- Building Story Name
  ,                                       !- Thermal Zone Name
  No;                                     !- Part of Total Floor Area

OS:Meter,
  {bf5cd4f6-e922-4369-ad21-b2db8180488d}, !- Handle
  Heating:Electricity,                    !- Name
  hourly,                                 !- Reporting Frequency
  False,                                  !- Meter File Only
  False;                                  !- Cumulative

OS:Schedule:Compact,
  {95fb2903-d2ff-4957-9028-ed02a653d4b5}, !- Handle
  BLDG_EQUIP_SCH,                         !- Name
  {43a1aaba-1f62-48ce-991f-ba097c237e47}, !- Schedule Type Limits Name
  Through: 12/31,                         !- Field 1
  For: Weekdays,                          !- Field 2
  Until: 08:00,                           !- Field 3
  0.40,                                   !- Field 4
  Until: 12:00,                           !- Field 5
  0.90,                                   !- Field 6
  Until: 13:00,                           !- Field 7
  0.80,                                   !- Field 8
  Until: 17:00,                           !- Field 9
  0.90,                                   !- Field 10
  Until: 18:00,                           !- Field 11
  0.50,                                   !- Field 12
  Until: 24:00,                           !- Field 13
  0.40,                                   !- Field 14
  For: Saturday,                          !- Field 15
  Until: 06:00,                           !- Field 16
  0.30,                                   !- Field 17
  Until: 08:00,                           !- Field 18
  0.4,                                    !- Field 19
  Until: 12:00,                           !- Field 20
  0.5,                                    !- Field 21
  Until: 17:00,                           !- Field 22
  0.35,                                   !- Field 23
  Until: 24:00,                           !- Field 24
  0.30,                                   !- Field 25
  For: SummerDesignDay,                   !- Field 26
  Until: 24:00,                           !- Field 27
  1.0,                                    !- Field 28
  For: WinterDesignDay,                   !- Field 29
  Until: 24:00,                           !- Field 30
  0.0,                                    !- Field 31
  For: AllOtherDays,                      !- Field 32
  Until: 24:00,                           !- Field 33
  0.30;                                   !- Field 34

OS:ScheduleTypeLimits,
  {43a1aaba-1f62-48ce-991f-ba097c237e47}, !- Handle
  Fraction,                               !- Name
  0,                                      !- Lower Limit Value {BasedOnField A4}
  1,                                      !- Upper Limit Value {BasedOnField A4}
  CONTINUOUS;                             !- Numeric Type

OS:ElectricEquipment:Definition,
  {f131e9a8-90d2-432c-99dc-8d6435b7ac33}, !- Handle
  Perimeter_ZN_4_MiscPlug_Equip Definition, !- Name
  Watts/Area,                             !- Design Level Calculation Method
  ,                                       !- Design Level {W}
  10.76,                                  !- Watts per Space Floor Area {W/m2}
  ,                                       !- Watts per Person {W/person}
  0,                                      !- Fraction Latent
  0.5,                                    !- Fraction Radiant
  0;                                      !- Fraction Lost

OS:ElectricEquipment,
  {dbbc068f-c134-4e0a-bb6c-922334dc3794}, !- Handle
  Perimeter_ZN_4_MiscPlug_Equip,          !- Name
  {f131e9a8-90d2-432c-99dc-8d6435b7ac33}, !- Electric Equipment Definition Name
  {b672cf26-9134-4cf3-a540-dc5922315596}, !- Space or SpaceType Name
  {95fb2903-d2ff-4957-9028-ed02a653d4b5}, !- Schedule Name
  ,                                       !- Multiplier
  MiscPlug;                               !- End-Use Subcategory

OS:Space,
  {b672cf26-9134-4cf3-a540-dc5922315596}, !- Handle
  Perimeter_ZN_4,                         !- Name
  {b717e1ce-fda9-4de1-ae1c-523ceb2cadc5}, !- Space Type Name
  ,                                       !- Default Construction Set Name
  ,                                       !- Default Schedule Set Name
  0,                                      !- Direction of Relative North {deg}
  0,                                      !- X Origin {m}
  0,                                      !- Y Origin {m}
  0,                                      !- Z Origin {m}
  {cb3089aa-77ef-4540-b89f-1e59d30c7af8}, !- Building Story Name
  {e5a8f6be-faf3-439b-b6fa-4097099cd364}, !- Thermal Zone Name
  Yes,                                    !- Part of Total Floor Area
  {82abbc3a-b689-46b6-ae88-ea049d9c8045}; !- Design Specification Outdoor Air Object Name

OS:Construction,
  {dd7447d4-0fad-4c7d-8adb-cef50d558389}, !- Handle
  Mass Non-res Ext Wall,                  !- Name
  ,                                       !- Surface Rendering Name
  {56da08ee-b57f-48e4-b678-1b7f42ca9385}, !- Layer 1
  {ac2e72f1-60b6-4a78-90db-23f566cc0f93}, !- Layer 2
  {ca6136cb-9a44-47ec-a68d-b2c2c15ebc0e}, !- Layer 3
  {a1d22088-0b4a-4b06-8493-93c2126bad8b}; !- Layer 4

OS:Material,
  {56da08ee-b57f-48e4-b678-1b7f42ca9385}, !- Handle
  1IN Stucco,                             !- Name
  Smooth,                                 !- Roughness
  0.0253,                                 !- Thickness {m}
  0.6918,                                 !- Conductivity {W/m-K}
  1858,                                   !- Density {kg/m3}
  837,                                    !- Specific Heat {J/kg-K}
  0.9,                                    !- Thermal Absorptance
  0.92,                                   !- Solar Absorptance
  0.92;                                   !- Visible Absorptance

OS:Material,
  {ac2e72f1-60b6-4a78-90db-23f566cc0f93}, !- Handle
  8IN CONCRETE HW,                        !- Name
  Rough,                                  !- Roughness
  0.2032,                                 !- Thickness {m}
  1.311,                                  !- Conductivity {W/m-K}
  2240,                                   !- Density {kg/m3}
  836.8,                                  !- Specific Heat {J/kg-K}
  0.9,                                    !- Thermal Absorptance
  0.7,                                    !- Solar Absorptance
  0.7;                                    !- Visible Absorptance

OS:Material,
  {ca6136cb-9a44-47ec-a68d-b2c2c15ebc0e}, !- Handle
  Mass NonRes Wall Insulation,            !- Name
  MediumRough,                            !- Roughness
  0.0495494599433393,                     !- Thickness {m}
  0.049,                                  !- Conductivity {W/m-K}
  265,                                    !- Density {kg/m3}
  836.8,                                  !- Specific Heat {J/kg-K}
  0.9,                                    !- Thermal Absorptance
  0.7,                                    !- Solar Absorptance
  0.7;                                    !- Visible Absorptance

OS:RunPeriod,
  {051594f5-10e8-45f6-8eea-46b0f1868e7e}, !- Handle
  Run Period 1,                           !- Name
  1,                                      !- Begin Month
  1,                                      !- Begin Day of Month
  12,                                     !- End Month
  31,                                     !- End Day of Month
  No,                                     !- Use Weather File Holidays and Special Days
  No,                                     !- Use Weather File Daylight Saving Period
  No,                                     !- Apply Weekend Holiday Rule
  Yes,                                    !- Use Weather File Rain Indicators
  Yes,                                    !- Use Weather File Snow Indicators
  1;                                      !- Number of Times Runperiod to be Repeated

OS:YearDescription,
  {0ee61eae-313a-4e56-899e-bbb3b8514151}, !- Handle
  ,                                       !- Calendar Year
  Sunday;                                 !- Day of Week for Start Day

OS:SpaceInfiltration:DesignFlowRate,
  {afc4b9df-c755-4e00-b137-1dc434c3cd8e}, !- Handle
  Attic_Infiltration,                     !- Name
  {dcb9499c-0227-4325-993e-981a6717c4d7}, !- Space or SpaceType Name
  {d3c2c88c-d6ae-4cb7-afb5-829819df888c}, !- Schedule Name
  AirChanges/Hour,                        !- Design Flow Rate Calculation Method
  ,                                       !- Design Flow Rate {m3/s}
  ,                                       !- Flow per Space Floor Area {m3/s-m2}
  ,                                       !- Flow per Exterior Surface Area {m3/s-m2}
  1,                                      !- Air Changes per Hour {1/hr}
  1,                                      !- Constant Term Coefficient
  0,                                      !- Temperature Term Coefficient
  0,                                      !- Velocity Term Coefficient
  0;                                      !- Velocity Squared Term Coefficient

OS:Schedule:Compact,
  {d3c2c88c-d6ae-4cb7-afb5-829819df888c}, !- Handle
  ALWAYS_ON,                              !- Name
  {a4ec66d4-dff0-4c15-83aa-bf037b06ff8c}, !- Schedule Type Limits Name
  Through: 12/31,                         !- Field 1
  For: AllDays,                           !- Field 2
  Until: 24:00,                           !- Field 3
  1;                                      !- Field 4

OS:ScheduleTypeLimits,
  {a4ec66d4-dff0-4c15-83aa-bf037b06ff8c}, !- Handle
  On/Off,                                 !- Name
  0,                                      !- Lower Limit Value {BasedOnField A4}
  1,                                      !- Upper Limit Value {BasedOnField A4}
  DISCRETE,                               !- Numeric Type
  Availability;                           !- Unit Type

OS:SizingPeriod:DesignDay,
  {769051c7-2546-423a-a8d7-1008e026671b}, !- Handle
  CHICAGO Ann Clg .4% Condns WB=>MDB,     !- Name
  31.2,                                   !- Maximum Dry-Bulb Temperature {C}
  10.7,                                   !- Daily Dry-Bulb Temperature Range {deltaC}
  25.5,                                   !- Humidity Indicating Conditions at Maximum Dry-Bulb {BasedOnField A3}
  99063,                                  !- Barometric Pressure {Pa}
  5.3,                                    !- Wind Speed {m/s}
  230,                                    !- Wind Direction {deg}
  1,                                      !- Sky Clearness
  0,                                      !- Rain Indicator
  0,                                      !- Snow Indicator
  21,                                     !- Day of Month
  7,                                      !- Month
  SummerDesignDay,                        !- Day Type
  0,                                      !- Daylight Saving Time Indicator
  Wetbulb,                                !- Humidity Indicating Type
  ,                                       !- Humidity Indicating Day Schedule Name
  ,                                       !- Dry-Bulb Temperature Range Modifier Type
  ,                                       !- Dry-Bulb Temperature Range Modifier Schedule Name
  ASHRAEClearSky;                         !- Solar Model Indicator

OS:ScheduleTypeLimits,
  {015bf945-4c0c-41ea-abe6-1c0aa767e485}, !- Handle
  {8ee6ebe3-45b3-4756-92cc-540a1cc1a750}; !- Name

OS:Schedule:Compact,
  {28a86b96-69ff-49d5-a24d-ff65fd52d325}, !- Handle
  SWHSys1 Water Heater Ambient Temperature Schedule Name, !- Name
  {1bbbc201-7e5b-48a4-9d0c-3a8fe3d2b208}, !- Schedule Type Limits Name
  Through: 12/31,                         !- Field 1
  For: AllDays,                           !- Field 2
  Until: 24:00,                           !- Field 3
  22.0;                                   !- Field 4

OS:People:Definition,
  {bbd172c6-d1ff-45c5-a93b-f67fafce6fb1}, !- Handle
  Perimeter_ZN_2 People Definition,       !- Name
  Area/Person,                            !- Number of People Calculation Method
  ,                                       !- Number of People {people}
  ,                                       !- People per Space Floor Area {person/m2}
  18.58,                                  !- Space Floor Area per Person {m2/person}
  0.3,                                    !- Fraction Radiant
  ,                                       !- Sensible Heat Fraction
  ,                                       !- Carbon Dioxide Generation Rate {m3/s-W}
  No,                                     !- Enable ASHRAE 55 Comfort Warnings
  ZoneAveraged;                           !- Mean Radiant Temperature Calculation Type

OS:People,
  {bae87da9-106b-4182-b02f-d9a8a5fb183b}, !- Handle
  Perimeter_ZN_2 People,                  !- Name
  {bbd172c6-d1ff-45c5-a93b-f67fafce6fb1}, !- People Definition Name
  {096f7966-00ec-4a0b-b9ac-c66e7ade73b9}, !- Space or SpaceType Name
  {662b1348-4a5e-4d46-bae3-42814ab6e427}, !- Number of People Schedule Name
  {8d866731-a99d-4862-a87b-7c27fba1d99a}, !- Activity Level Schedule Name
  ,                                       !- Surface Name/Angle Factor List Name
  {ff11a117-f2a7-47c1-b271-172da90a58bb}; !- Work Efficiency Schedule Name

OS:Space,
  {096f7966-00ec-4a0b-b9ac-c66e7ade73b9}, !- Handle
  Perimeter_ZN_2,                         !- Name
  {b717e1ce-fda9-4de1-ae1c-523ceb2cadc5}, !- Space Type Name
  ,                                       !- Default Construction Set Name
  ,                                       !- Default Schedule Set Name
  0,                                      !- Direction of Relative North {deg}
  0,                                      !- X Origin {m}
  0,                                      !- Y Origin {m}
  0,                                      !- Z Origin {m}
  {cb3089aa-77ef-4540-b89f-1e59d30c7af8}, !- Building Story Name
  {b08bfe72-ffae-40ae-ad2d-68d1a32e6395}, !- Thermal Zone Name
  Yes,                                    !- Part of Total Floor Area
  {22140796-76b9-4c23-934e-4212c0361aab}; !- Design Specification Outdoor Air Object Name

OS:Schedule:Compact,
  {662b1348-4a5e-4d46-bae3-42814ab6e427}, !- Handle
  BLDG_OCC_SCH,                           !- Name
  {43a1aaba-1f62-48ce-991f-ba097c237e47}, !- Schedule Type Limits Name
  Through: 12/31,                         !- Field 1
  For: SummerDesignDay,                   !- Field 2
  Until: 06:00,                           !- Field 3
  0.0,                                    !- Field 4
  Until: 22:00,                           !- Field 5
  1.0,                                    !- Field 6
  Until: 24:00,                           !- Field 7
  0.05,                                   !- Field 8
  For: Weekdays,                          !- Field 9
  Until: 06:00,                           !- Field 10
  0.0,                                    !- Field 11
  Until: 07:00,                           !- Field 12
  0.1,                                    !- Field 13
  Until: 08:00,                           !- Field 14
  0.2,                                    !- Field 15
  Until: 12:00,                           !- Field 16
  0.95,                                   !- Field 17
  Until: 13:00,                           !- Field 18
  0.5,                                    !- Field 19
  Until: 17:00,                           !- Field 20
  0.95,                                   !- Field 21
  Until: 18:00,                           !- Field 22
  0.3,                                    !- Field 23
  Until: 20:00,                           !- Field 24
  0.1,                                    !- Field 25
  Until: 24:00,                           !- Field 26
  0.05,                                   !- Field 27
  For: Saturday,                          !- Field 28
  Until: 06:00,                           !- Field 29
  0.0,                                    !- Field 30
  Until: 08:00,                           !- Field 31
  0.1,                                    !- Field 32
  Until: 12:00,                           !- Field 33
  0.3,                                    !- Field 34
  Until: 17:00,                           !- Field 35
  0.1,                                    !- Field 36
  Until: 24:00,                           !- Field 37
  0.0,                                    !- Field 38
  For: AllOtherDays,                      !- Field 39
  Until: 24:00,                           !- Field 40
  0.0;                                    !- Field 41

OS:Schedule:Compact,
  {8d866731-a99d-4862-a87b-7c27fba1d99a}, !- Handle
  ACTIVITY_SCH,                           !- Name
  {58bbefc8-2847-4de7-aad3-48e4903318bb}, !- Schedule Type Limits Name
  Through: 12/31,                         !- Field 1
  For: AllDays,                           !- Field 2
  Until: 24:00,                           !- Field 3
  120;                                    !- Field 4

OS:ScheduleTypeLimits,
  {80bc91cc-4006-4303-b1c4-5a8f1b8d0789}, !- Handle
  {246abad9-26fa-4be6-bc72-30257f162c79}; !- Name

OS:ScheduleTypeLimits,
  {58bbefc8-2847-4de7-aad3-48e4903318bb}, !- Handle
  ActivityLevel,                          !- Name
  0,                                      !- Lower Limit Value {BasedOnField A4}
  ,                                       !- Upper Limit Value {BasedOnField A4}
  Continuous,                             !- Numeric Type
  ActivityLevel;                          !- Unit Type

OS:Schedule:Compact,
  {ff11a117-f2a7-47c1-b271-172da90a58bb}, !- Handle
  WORK_EFF_SCH,                           !- Name