
OS:Version,
  {26b51f92-86af-467d-83f8-634e7e6c31a8}, !- Handle
  1.8.5;                                  !- Version Identifier

OS:Site,
  {4b1fc88d-6392-4659-8ae4-889d4d7263d0}, !- Handle
  USA IL-CHICAGO-OHARE,                   !- Name
  41.77,                                  !- Latitude {deg}
  -87.75,                                 !- Longitude {deg}
  -6,                                     !- Time Zone {hr}
  190,                                    !- Elevation {m}
  City;                                   !- Terrain

OS:SimulationControl,
  {3720a756-a556-45ae-a13a-b5bb09bedef6}, !- Handle
  Yes,                                    !- Do Zone Sizing Calculation
  Yes,                                    !- Do System Sizing Calculation
  Yes,                                    !- Do Plant Sizing Calculation
  No,                                     !- Run Simulation for Sizing Periods
  Yes,                                    !- Run Simulation for Weather File Run Periods
  0.04,                                   !- Loads Convergence Tolerance Value
  0.2,                                    !- Temperature Convergence Tolerance Value {deltaC}
  FullInteriorAndExterior,                !- Solar Distribution
  25,                                     !- Maximum Number of Warmup Days
  6;                                      !- Minimum Number of Warmup Days

OS:Construction,
  {b01fcb70-4dbb-44b9-abb9-8e40c2f18ab8}, !- Handle
  InteriorFurnishings,                    !- Name
  ,                                       !- Surface Rendering Name
  {b4e4fe1a-b2eb-4c53-a923-c9f5b7538430}; !- Layer 1

OS:Material,
  {b4e4fe1a-b2eb-4c53-a923-c9f5b7538430}, !- Handle
  Std Wood 6inch,                         !- Name
  MediumSmooth,                           !- Roughness
  0.15,                                   !- Thickness {m}
  0.12,                                   !- Conductivity {W/m-K}
  540,                                    !- Density {kg/m3}
  1210,                                   !- Specific Heat {J/kg-K}
  0.9,                                    !- Thermal Absorptance
  0.7,                                    !- Solar Absorptance
  0.7;                                    !- Visible Absorptance

OS:People:Definition,
  {011cab90-0f73-449d-94fd-0ab0b85a6aa5}, !- Handle
  Front_Retail People Definition,         !- Name
  Area/Person,                            !- Number of People Calculation Method
  ,                                       !- Number of People {people}
  ,                                       !- People per Space Floor Area {person/m2}
  6.19,                                   !- Space Floor Area per Person {m2/person}
  0.3,                                    !- Fraction Radiant
  ,                                       !- Sensible Heat Fraction
  ,                                       !- Carbon Dioxide Generation Rate {m3/s-W}
  No,                                     !- Enable ASHRAE 55 Comfort Warnings
  ZoneAveraged;                           !- Mean Radiant Temperature Calculation Type

OS:People,
  {c284a41f-4540-4a82-83e8-0833f001eb30}, !- Handle
  Front_Retail People,                    !- Name
  {011cab90-0f73-449d-94fd-0ab0b85a6aa5}, !- People Definition Name
  {fb6ee245-ce39-4869-97f6-278bf8cb0a50}, !- Space or SpaceType Name
  {25faf8b8-0cf6-4ec1-8676-49a6be19c778}, !- Number of People Schedule Name
  {359e0139-0b9f-485d-a3b1-6d85e314e32b}, !- Activity Level Schedule Name
  ,                                       !- Surface Name/Angle Factor List Name
  {a4c38367-33b2-4a69-afde-47c3ccfce70b}; !- Work Efficiency Schedule Name

OS:Space,
  {fb6ee245-ce39-4869-97f6-278bf8cb0a50}, !- Handle
  Front_Retail,                           !- Name
  {4e62e039-98f1-467b-a3e5-27e65e3ae47b}, !- Space Type Name
  ,                                       !- Default Construction Set Name
  ,                                       !- Default Schedule Set Name
  0,                                      !- Direction of Relative North {deg}
  29.135,                                 !- X Origin {m}
  0,                                      !- Y Origin {m}
  0,                                      !- Z Origin {m}
  {d5864f9b-94f8-4bf8-bd4a-ae8da1bad4ad}, !- Building Story Name
  {c3e4e5d7-85b1-45c3-8878-fb57314c2d53}, !- Thermal Zone Name
  Yes,                                    !- Part of Total Floor Area
  {a6e59f76-dffe-46ae-88d4-52462cc4e7fa}; !- Design Specification Outdoor Air Object Name

OS:Schedule:Compact,
  {9a3e6d25-3656-4ada-ade5-a9ee5f161d05}, !- Handle
  HTGSETP_SCH,                            !- Name
  {5231ead1-29f7-4e48-80c6-4ea7a9e9ab80}, !- Schedule Type Limits Name
  Through: 12/31,                         !- Field 1
  For: Weekdays,                          !- Field 2
  Until: 06:00,                           !- Field 3
  15.6,                                   !- Field 4
  Until: 21:00,                           !- Field 5
  21.0,                                   !- Field 6
  Until: 24:00,                           !- Field 7
  15.6,                                   !- Field 8
  For SummerDesignDay,                    !- Field 9
  Until: 24:00,                           !- Field 10
  15.6,                                   !- Field 11
  For WinterDesignDay,                    !- Field 12
  Until: 24:00,                           !- Field 13
  21.0,                                   !- Field 14
  For: Saturday,                          !- Field 15
  Until: 06:00,                           !- Field 16
  15.6,                                   !- Field 17
  Until: 22:00,                           !- Field 18
  21.0,                                   !- Field 19
  Until: 24:00,                           !- Field 20
  15.6,                                   !- Field 21
  For: Sunday Holidays AllOtherDays,      !- Field 22
  Until:  8:00,                           !- Field 23
  15.6,                                   !- Field 24
  Until: 19:00,                           !- Field 25
  21.,                                    !- Field 26
  Until: 24:00,                           !- Field 27
  15.6;                                   !- Field 28

OS:ScheduleTypeLimits,
  {5231ead1-29f7-4e48-80c6-4ea7a9e9ab80}, !- Handle
  Temperature,                            !- Name
  -60,                                    !- Lower Limit Value {BasedOnField A4}
  200,                                    !- Upper Limit Value {BasedOnField A4}
  CONTINUOUS,                             !- Numeric Type
  Temperature;                            !- Unit Type

OS:Schedule:Compact,
  {d6e94f1b-1a6f-4fee-aa23-25f50dcc7287}, !- Handle
  CLGSETP_SCH,                            !- Name
  {5231ead1-29f7-4e48-80c6-4ea7a9e9ab80}, !- Schedule Type Limits Name
  Through: 12/31,                         !- Field 1
  For: Weekdays SummerDesignDay,          !- Field 2
  Until: 06:00,                           !- Field 3
  30.0,                                   !- Field 4
  Until: 21:00,                           !- Field 5
  24.0,                                   !- Field 6
  Until: 24:00,                           !- Field 7
  30.0,                                   !- Field 8
  For: Saturday,                          !- Field 9
  Until: 06:00,                           !- Field 10
  30.0,                                   !- Field 11
  Until: 22:00,                           !- Field 12
  24.0,                                   !- Field 13
  Until: 24:00,                           !- Field 14
  30.0,                                   !- Field 15
  For WinterDesignDay,                    !- Field 16
  Until: 24:00,                           !- Field 17
  30.0,                                   !- Field 18
  For: Sunday Holidays AllOtherDays,      !- Field 19
  Until: 8:00,                            !- Field 20
  30.0,                                   !- Field 21
  Until: 19:00,                           !- Field 22
  24.0,                                   !- Field 23
  Until: 24:00,                           !- Field 24
  30.0;                                   !- Field 25

OS:Schedule:Compact,
  {25faf8b8-0cf6-4ec1-8676-49a6be19c778}, !- Handle
  BLDG_OCC_SCH,                           !- Name
  {83954c0d-b765-465a-9cca-65beb3f3c193}, !- Schedule Type Limits Name
  Through: 12/31,                         !- Field 1
  For: Weekdays,                          !- Field 2
  Until: 07:00,                           !- Field 3
  0.0,                                    !- Field 4
  Until: 08:00,                           !- Field 5
  0.1,                                    !- Field 6
  Until: 09:00,                           !- Field 7
  0.2,                                    !- Field 8
  Until: 11:00,                           !- Field 9
  0.5,                                    !- Field 10
  Until: 15:00,                           !- Field 11
  0.7,                                    !- Field 12
  Until: 16:00,                           !- Field 13
  0.8,                                    !- Field 14
  Until: 17:00,                           !- Field 15
  0.7,                                    !- Field 16
  Until: 19:00,                           !- Field 17
  0.5,                                    !- Field 18
  Until: 21:00,                           !- Field 19
  0.3,                                    !- Field 20
  Until: 24:00,                           !- Field 21
  0.0,                                    !- Field 22
  For: SummerDesignDay WinterDesignDay,   !- Field 23
  Until: 24:00,                           !- Field 24
  1.0,                                    !- Field 25
  For: Saturday,                          !- Field 26
  Until: 07:00,                           !- Field 27
  0.0,                                    !- Field 28
  Until: 08:00,                           !- Field 29
  0.1,                                    !- Field 30
  Until: 09:00,                           !- Field 31
  0.2,                                    !- Field 32
  Until: 10:00,                           !- Field 33
  0.5,                                    !- Field 34
  Until: 11:00,                           !- Field 35
  0.6,                                    !- Field 36
  Until: 17:00,                           !- Field 37
  0.8,                                    !- Field 38
  Until: 18:00,                           !- Field 39
  0.6,                                    !- Field 40
  Until: 21:00,                           !- Field 41
  0.2,                                    !- Field 42
  Until: 22:00,                           !- Field 43
  0.1,                                    !- Field 44
  Until: 24:00,                           !- Field 45
  0.0,                                    !- Field 46
  For: AllOtherDays,                      !- Field 47
  Until: 09:00,                           !- Field 48
  0.0,                                    !- Field 49
  Until: 10:00,                           !- Field 50
  0.1,                                    !- Field 51
  Until: 12:00,                           !- Field 52
  0.2,                                    !- Field 53
  Until: 17:00,                           !- Field 54
  0.4,                                    !- Field 55
  Until: 18:00,                           !- Field 56
  0.2,                                    !- Field 57
  Until: 19:00,                           !- Field 58
  0.1,                                    !- Field 59
  Until: 24:00,                           !- Field 60
  0.0;                                    !- Field 61

OS:ScheduleTypeLimits,
  {83954c0d-b765-465a-9cca-65beb3f3c193}, !- Handle
  Fraction,                               !- Name
  0,                                      !- Lower Limit Value {BasedOnField A4}
  1,                                      !- Upper Limit Value {BasedOnField A4}
  CONTINUOUS;                             !- Numeric Type

OS:Schedule:Compact,
  {359e0139-0b9f-485d-a3b1-6d85e314e32b}, !- Handle
  ACTIVITY_SCH,                           !- Name
  {446836ab-2618-4517-a198-5eb41eea7bf4}, !- Schedule Type Limits Name
  Through: 12/31,                         !- Field 1
  For: AllDays,                           !- Field 2
  Until: 24:00,                           !- Field 3
  120.;                                   !- Field 4

OS:ScheduleTypeLimits,
  {27ee2aec-8a43-4bad-a2c9-f312901eac2f}, !- Handle
  {cd9c6a88-ffaa-4684-9cd9-7fcc2e3c0537}; !- Name

OS:ScheduleTypeLimits,
  {446836ab-2618-4517-a198-5eb41eea7bf4}, !- Handle
  ActivityLevel,                          !- Name
  0,                                      !- Lower Limit Value {BasedOnField A4}
  ,                                       !- Upper Limit Value {BasedOnField A4}
  Continuous,                             !- Numeric Type
  ActivityLevel;                          !- Unit Type

OS:Schedule:Compact,
  {a4c38367-33b2-4a69-afde-47c3ccfce70b}, !- Handle
  WORK_EFF_SCH,                           !- Name
  {83954c0d-b765-465a-9cca-65beb3f3c193}, !- Schedule Type Limits Name
  Through: 12/31,                         !- Field 1
  For: AllDays,                           !- Field 2
  Until: 24:00,                           !- Field 3
  0.0;                                    !- Field 4

OS:ElectricEquipment:Definition,
  {3f8b30f9-a376-4218-8568-93735ec4cb43}, !- Handle
  Front_Retail_MiscPlug_Equip Definition, !- Name
  Watts/Area,                             !- Design Level Calculation Method
  ,                                       !- Design Level {W}
  3.23,                                   !- Watts per Space Floor Area {W/m2}
  ,                                       !- Watts per Person {W/person}
  0,                                      !- Fraction Latent
  0.5,                                    !- Fraction Radiant
  0;                                      !- Fraction Lost

OS:ElectricEquipment,
  {4f571318-cd3f-4589-937e-2d1ccecdb3bb}, !- Handle
  Front_Retail_MiscPlug_Equip,            !- Name
  {3f8b30f9-a376-4218-8568-93735ec4cb43}, !- Electric Equipment Definition Name
  {fb6ee245-ce39-4869-97f6-278bf8cb0a50}, !- Space or SpaceType Name
  {72f2df1b-d5d2-42a8-9f0e-55ad0a41a04b}, !- Schedule Name
  ,                                       !- Multiplier
  MiscPlug;                               !- End-Use Subcategory

OS:Schedule:Compact,
  {72f2df1b-d5d2-42a8-9f0e-55ad0a41a04b}, !- Handle
  BLDG_EQUIP_SCH,                         !- Name
  {83954c0d-b765-465a-9cca-65beb3f3c193}, !- Schedule Type Limits Name
  Through: 12/31,                         !- Field 1
  For: Weekdays,                          !- Field 2
  Until: 07:00,                           !- Field 3
  0.2,                                    !- Field 4
  Until: 08:00,                           !- Field 5
  0.4,                                    !- Field 6
  Until: 09:00,                           !- Field 7
  0.7,                                    !- Field 8
  Until: 18:00,                           !- Field 9
  0.9,                                    !- Field 10
  Until: 20:00,                           !- Field 11
  0.8,                                    !- Field 12
  Until: 21:00,                           !- Field 13
  0.7,                                    !- Field 14
  Until: 22:00,                           !- Field 15
  0.4,                                    !- Field 16
  Until: 24:00,                           !- Field 17
  0.2,                                    !- Field 18
  For: Saturday,                          !- Field 19
  Until: 07:00,                           !- Field 20
  0.15,                                   !- Field 21
  Until: 08:00,                           !- Field 22
  0.3,                                    !- Field 23
  Until: 09:00,                           !- Field 24
  0.5,                                    !- Field 25
  Until: 10:00,                           !- Field 26
  0.8,                                    !- Field 27
  Until: 18:00,                           !- Field 28
  0.9,                                    !- Field 29
  Until: 19:00,                           !- Field 30
  0.7,                                    !- Field 31
  Until: 21:00,                           !- Field 32
  0.5,                                    !- Field 33
  Until: 22:00,                           !- Field 34
  0.3,                                    !- Field 35
  Until: 24:00,                           !- Field 36
  0.15,                                   !- Field 37
  For: SummerDesignDay,                   !- Field 38
  Until: 24:00,                           !- Field 39
  1.0,                                    !- Field 40
  For: WinterDesignDay,                   !- Field 41
  Until: 24:00,                           !- Field 42
  0.0,                                    !- Field 43
  For: AllOtherDays,                      !- Field 44
  Until: 08:00,                           !- Field 45
  0.15,                                   !- Field 46
  Until: 10:00,                           !- Field 47
  0.3,                                    !- Field 48
  Until: 12:00,                           !- Field 49
  0.6,                                    !- Field 50
  Until: 17:00,                           !- Field 51
  0.8,                                    !- Field 52
  Until: 18:00,                           !- Field 53
  0.6,                                    !- Field 54
  Until: 19:00,                           !- Field 55
  0.4,                                    !- Field 56
  Until: 24:00,                           !- Field 57
  0.15;                                   !- Field 58

OS:Surface,
  {1e0ad269-bdf9-4b68-a10d-8c49e3ecb2d4}, !- Handle
  Core_Retail_Roof,                       !- Name
  RoofCeiling,                            !- Surface Type
  {fc7df113-7178-4ff9-9713-9879876bfd21}, !- Construction Name
  {f90c6fbc-d4d5-4fb5-a470-e873acf93310}, !- Space Name
  Outdoors,                               !- Outside Boundary Condition
  ,                                       !- Outside Boundary Condition Object
  SunExposed,                             !- Sun Exposure
  WindExposed,                            !- Wind Exposure
  ,                                       !- View Factor to Ground
  ,                                       !- Number of Vertices
  29.135, -3, 6.096,                      !- X,Y,Z Vertex 1 {m}
  29.135, 0, 6.096,                       !- X,Y,Z Vertex 2 {m}
  54.27, 0, 6.096,                        !- X,Y,Z Vertex 3 {m}
  54.27, 29.27, 6.096,                    !- X,Y,Z Vertex 4 {m}
  0, 29.27, 6.096,                        !- X,Y,Z Vertex 5 {m}
  0, 0, 6.096,                            !- X,Y,Z Vertex 6 {m}
  25.135, 0, 6.096,                       !- X,Y,Z Vertex 7 {m}
  25.135, -3, 6.096;                      !- X,Y,Z Vertex 8 {m}

OS:Construction,
  {fc7df113-7178-4ff9-9713-9879876bfd21}, !- Handle
  IEAD Non-res Roof,                      !- Name
  ,                                       !- Surface Rendering Name
  {ff8dd136-06df-44e4-9e47-654640c367a0}, !- Layer 1
  {9c498e66-1271-4fa9-8919-87238aff3c74}, !- Layer 2
  {c9111017-d20d-42bd-9a99-1065d3003dff}; !- Layer 3

OS:Material,
  {ff8dd136-06df-44e4-9e47-654640c367a0}, !- Handle
  Roof Membrane,                          !- Name
  VeryRough,                              !- Roughness
  0.0095,                                 !- Thickness {m}
  0.16,                                   !- Conductivity {W/m-K}
  1121.29,                                !- Density {kg/m3}
  1460,                                   !- Specific Heat {J/kg-K}
  0.9,                                    !- Thermal Absorptance
  0.7,                                    !- Solar Absorptance
  0.7;                                    !- Visible Absorptance

OS:Material,
  {9c498e66-1271-4fa9-8919-87238aff3c74}, !- Handle
  IEAD NonRes Roof Insulation,            !- Name
  MediumRough,                            !- Roughness
  0.127338688569477,                      !- Thickness {m}
  0.049,                                  !- Conductivity {W/m-K}
  265,                                    !- Density {kg/m3}
  836.8,                                  !- Specific Heat {J/kg-K}
  0.9,                                    !- Thermal Absorptance
  0.7,                                    !- Solar Absorptance
  0.7;                                    !- Visible Absorptance

OS:Material,
  {c9111017-d20d-42bd-9a99-1065d3003dff}, !- Handle
  Metal Decking,                          !- Name
  MediumSmooth,                           !- Roughness
  0.0015,                                 !- Thickness {m}
  45.006,                                 !- Conductivity {W/m-K}
  7680,                                   !- Density {kg/m3}
  418.4,                                  !- Specific Heat {J/kg-K}
  0.9,                                    !- Thermal Absorptance
  0.7,                                    !- Solar Absorptance
  0.3;                                    !- Visible Absorptance

OS:Space,
  {f90c6fbc-d4d5-4fb5-a470-e873acf93310}, !- Handle
  Core_Retail,                            !- Name
  {4e62e039-98f1-467b-a3e5-27e65e3ae47b}, !- Space Type Name
  ,                                       !- Default Construction Set Name
  ,                                       !- Default Schedule Set Name
  0,                                      !- Direction of Relative North {deg}
  0,                                      !- X Origin {m}
  6,                                      !- Y Origin {m}
  0,                                      !- Z Origin {m}
  {d5864f9b-94f8-4bf8-bd4a-ae8da1bad4ad}, !- Building Story Name
  {1aadcce1-5e12-4016-9f02-9bad1e830dff}, !- Thermal Zone Name
  Yes,                                    !- Part of Total Floor Area
  {425c6fb8-302b-4ea9-ac3f-7c91b3212399}; !- Design Specification Outdoor Air Object Name

OS:Surface,
  {3eaf2817-caf5-4192-b8ca-6489c8c71559}, !- Handle
  Front_Entry_Roof,                       !- Name
  RoofCeiling,                            !- Surface Type
  {fc7df113-7178-4ff9-9713-9879876bfd21}, !- Construction Name
  {73adc102-3f78-47f7-826c-d84c553e6408}, !- Space Name
  Outdoors,                               !- Outside Boundary Condition
  ,                                       !- Outside Boundary Condition Object
  SunExposed,                             !- Sun Exposure
  WindExposed,                            !- Wind Exposure
  ,                                       !- View Factor to Ground
  ,                                       !- Number of Vertices
  4, 0, 6.096,                            !- X,Y,Z Vertex 1 {m}
  4, 3, 6.096,                            !- X,Y,Z Vertex 2 {m}
  0, 3, 6.096,                            !- X,Y,Z Vertex 3 {m}
  0, 0, 6.096;                            !- X,Y,Z Vertex 4 {m}

OS:Space,
  {73adc102-3f78-47f7-826c-d84c553e6408}, !- Handle
  Front_Entry,                            !- Name
  {e950d739-6dd9-4833-a8e4-9a8609a7555e}, !- Space Type Name
  ,                                       !- Default Construction Set Name
  ,                                       !- Default Schedule Set Name
  0,                                      !- Direction of Relative North {deg}
  25.135,                                 !- X Origin {m}
  0,                                      !- Y Origin {m}
  0,                                      !- Z Origin {m}
  {d5864f9b-94f8-4bf8-bd4a-ae8da1bad4ad}, !- Building Story Name
  {c3e4e5d7-85b1-45c3-8878-fb57314c2d53}, !- Thermal Zone Name
  Yes,                                    !- Part of Total Floor Area
  {1c639148-7f7f-4f70-bd0c-b35184532c6d}; !- Design Specification Outdoor Air Object Name

OS:Schedule:Compact,
  {68deebbe-a52c-45f0-966e-8327351e70a7}, !- Handle
  FRONT_ENTRY_COOLING,                    !- Name
  {5231ead1-29f7-4e48-80c6-4ea7a9e9ab80}, !- Schedule Type Limits Name
  Through: 12/31,                         !- Field 1
  For: AllDays,                           !- Field 2
  Until: 24:00,                           !- Field 3
  90;                                     !- Field 4

OS:Meter,
  {69579521-84b2-4e17-927d-fdbfe5d5bb66}, !- Handle
  Heating:Electricity,                    !- Name
  hourly,                                 !- Reporting Frequency
  False,                                  !- Meter File Only
  False;                                  !- Cumulative

OS:Surface,
  {ac37c6c9-9445-4a7e-9663-6f6a4d497c6d}, !- Handle
  Front_Retail_Roof,                      !- Name
  RoofCeiling,                            !- Surface Type
  {fc7df113-7178-4ff9-9713-9879876bfd21}, !- Construction Name
  {fb6ee245-ce39-4869-97f6-278bf8cb0a50}, !- Space Name
  Outdoors,                               !- Outside Boundary Condition
  ,                                       !- Outside Boundary Condition Object
  SunExposed,                             !- Sun Exposure
  WindExposed,                            !- Wind Exposure
  ,                                       !- View Factor to Ground
  ,                                       !- Number of Vertices
  25.135, 0, 6.096,                       !- X,Y,Z Vertex 1 {m}
  25.135, 6, 6.096,                       !- X,Y,Z Vertex 2 {m}
  0, 6, 6.096,                            !- X,Y,Z Vertex 3 {m}
  0, 0, 6.096;                            !- X,Y,Z Vertex 4 {m}

OS:Surface,
  {8dc06c67-080c-4369-8fee-0ce8e7e108ee}, !- Handle
  Back_Space_Wall_West,                   !- Name
  Wall,                                   !- Surface Type
  {c3fbe991-eaf9-4125-a1e6-99fb8fea983b}, !- Construction Name
  {d42f7008-38e9-4f69-a7ed-22912dc0fe76}, !- Space Name
  Outdoors,                               !- Outside Boundary Condition
  ,                                       !- Outside Boundary Condition Object
  SunExposed,                             !- Sun Exposure
  WindExposed,                            !- Wind Exposure
  ,                                       !- View Factor to Ground
  ,                                       !- Number of Vertices
  0, 7, 6.096,                            !- X,Y,Z Vertex 1 {m}
  0, 7, 0,                                !- X,Y,Z Vertex 2 {m}
  0, 0, 0,                                !- X,Y,Z Vertex 3 {m}
  0, 0, 6.096;                            !- X,Y,Z Vertex 4 {m}

OS:Construction,
  {c3fbe991-eaf9-4125-a1e6-99fb8fea983b}, !- Handle
  Mass Non-res Ext Wall,                  !- Name
  ,                                       !- Surface Rendering Name
  {5d3c2146-488b-4af1-850c-210391a0a8f3}, !- Layer 1
  {72174d14-ae59-4e66-9da3-6cc8a78b64c5}, !- Layer 2
  {ff54f6ef-c999-4451-a2ec-07933bf835c7}, !- Layer 3
  {39b7f125-1b3e-461e-9166-77f4e8ee2606}; !- Layer 4

OS:Material,
  {5d3c2146-488b-4af1-850c-210391a0a8f3}, !- Handle
  1IN Stucco,                             !- Name
  Smooth,                                 !- Roughness
  0.0253,                                 !- Thickness {m}
  0.6918,                                 !- Conductivity {W/m-K}
  1858,                                   !- Density {kg/m3}
  837,                                    !- Specific Heat {J/kg-K}
  0.9,                                    !- Thermal Absorptance
  0.92,                                   !- Solar Absorptance
  0.92;                                   !- Visible Absorptance

OS:Material,
  {72174d14-ae59-4e66-9da3-6cc8a78b64c5}, !- Handle
  8IN CONCRETE HW,                        !- Name
  Rough,                                  !- Roughness
  0.2032,                                 !- Thickness {m}
  1.311,                                  !- Conductivity {W/m-K}
  2240,                                   !- Density {kg/m3}
  836.8,                                  !- Specific Heat {J/kg-K}
  0.9,                                    !- Thermal Absorptance
  0.7,                                    !- Solar Absorptance
  0.7;                                    !- Visible Absorptance

OS:Material,
  {ff54f6ef-c999-4451-a2ec-07933bf835c7}, !- Handle
  Mass NonRes Wall Insulation,            !- Name
  MediumRough,                            !- Roughness
  0.0495494599433393,                     !- Thickness {m}
  0.049,                                  !- Conductivity {W/m-K}
  265,                                    !- Density {kg/m3}
  836.8,                                  !- Specific Heat {J/kg-K}
  0.9,                                    !- Thermal Absorptance
  0.7,                                    !- Solar Absorptance
  0.7;                                    !- Visible Absorptance

OS:Material,
  {39b7f125-1b3e-461e-9166-77f4e8ee2606}, !- Handle
  1/2IN Gypsum,                           !- Name
  Smooth,                                 !- Roughness
  0.0127,                                 !- Thickness {m}
  0.16,                                   !- Conductivity {W/m-K}
  784.9,                                  !- Density {kg/m3}
  830,                                    !- Specific Heat {J/kg-K}
  0.9,                                    !- Thermal Absorptance
  0.92,                                   !- Solar Absorptance
  0.92;                                   !- Visible Absorptance

OS:Space,
  {d42f7008-38e9-4f69-a7ed-22912dc0fe76}, !- Handle
  Back_Space,                             !- Name
  {cbe41e39-573e-4368-89da-035929fe6ac4}, !- Space Type Name
  ,                                       !- Default Construction Set Name
  ,                                       !- Default Schedule Set Name
  0,                                      !- Direction of Relative North {deg}
  0,                                      !- X Origin {m}
  35.27,                                  !- Y Origin {m}
  0,                                      !- Z Origin {m}
  {d5864f9b-94f8-4bf8-bd4a-ae8da1bad4ad}, !- Building Story Name
  {1c7d9ddc-84b7-4ae2-863e-9537ee3a262b}, !- Thermal Zone Name
  Yes,                                    !- Part of Total Floor Area