
OS:Version,
  {d69de11b-09d9-482a-a00a-0c64c6df1bf3}, !- Handle
  1.8.5;                                  !- Version Identifier

OS:Site,
  {5bd70dba-0033-4d03-82a7-2e3b549c0659}, !- Handle
  USA IL-CHICAGO-OHARE,                   !- Name
  41.77,                                  !- Latitude {deg}
  -87.75,                                 !- Longitude {deg}
  -6,                                     !- Time Zone {hr}
  190,                                    !- Elevation {m}
  City;                                   !- Terrain

OS:SimulationControl,
  {7c98ebd0-da6f-4793-aec0-9b853e473d8e}, !- Handle
  Yes,                                    !- Do Zone Sizing Calculation
  Yes,                                    !- Do System Sizing Calculation
  Yes,                                    !- Do Plant Sizing Calculation
  No,                                     !- Run Simulation for Sizing Periods
  Yes,                                    !- Run Simulation for Weather File Run Periods
  0.04,                                   !- Loads Convergence Tolerance Value
  0.2,                                    !- Temperature Convergence Tolerance Value {deltaC}
  FullInteriorAndExterior,                !- Solar Distribution
  25,                                     !- Maximum Number of Warmup Days
  6;                                      !- Minimum Number of Warmup Days

OS:Schedule:Compact,
  {80670c93-630a-4d4e-8e90-87d64c232b43}, !- Handle
  HVACOperationSchd,                      !- Name
  {d7126c9c-6095-4aff-bcfa-ee49421bf150}, !- Schedule Type Limits Name
  Through: 12/31,                         !- Field 1
  For: Weekdays SummerDesignDay,          !- Field 2
  Until: 06:00,                           !- Field 3
  0.0,                                    !- Field 4
  Until: 21:00,                           !- Field 5
  1.0,                                    !- Field 6
  Until: 24:00,                           !- Field 7
  0.0,                                    !- Field 8
  For: Saturday WinterDesignDay,          !- Field 9
  Until: 06:00,                           !- Field 10
  0.0,                                    !- Field 11
  Until: 22:00,                           !- Field 12
  1.0,                                    !- Field 13
  Until: 24:00,                           !- Field 14
  0.0,                                    !- Field 15
  For: AllOtherDays,                      !- Field 16
  Until: 08:00,                           !- Field 17
  0.0,                                    !- Field 18
  Until: 19:00,                           !- Field 19
  1.0,                                    !- Field 20
  Until: 24:00,                           !- Field 21
  0.0;                                    !- Field 22

OS:ScheduleTypeLimits,
  {d7126c9c-6095-4aff-bcfa-ee49421bf150}, !- Handle
  On/Off,                                 !- Name
  0,                                      !- Lower Limit Value {BasedOnField A4}
  1,                                      !- Upper Limit Value {BasedOnField A4}
  DISCRETE,                               !- Numeric Type
  Availability;                           !- Unit Type

OS:Lights:Definition,
  {e74e491d-58d1-4963-a723-5f1dfa73da78}, !- Handle
  Front_Retail_Lights Definition,         !- Name
  Watts/Area,                             !- Design Level Calculation Method
  ,                                       !- Lighting Level {W}
  18.29,                                  !- Watts per Space Floor Area {W/m2}
  ,                                       !- Watts per Person {W/person}
  0.7,                                    !- Fraction Radiant
  0.2,                                    !- Fraction Visible
  0,                                      !- Return Air Fraction
  No;                                     !- Return Air Fraction Calculated from Plenum Temperature

OS:Lights,
  {b3170d0f-43b4-4211-bd55-ea754d97bfd0}, !- Handle
  Front_Retail_Lights,                    !- Name
  {e74e491d-58d1-4963-a723-5f1dfa73da78}, !- Lights Definition Name
  {cb410933-a8f4-46d1-9fbc-fb8a7aea9044}, !- Space or SpaceType Name
  {958534af-9156-4912-8377-4c907060ad2e}, !- Schedule Name
  1,                                      !- Fraction Replaceable
  ,                                       !- Multiplier
  General;                                !- End-Use Subcategory

OS:Space,
  {cb410933-a8f4-46d1-9fbc-fb8a7aea9044}, !- Handle
  Front_Retail,                           !- Name
  {2c9f7e58-c552-4f4b-882a-0e789f37426b}, !- Space Type Name
  ,                                       !- Default Construction Set Name
  ,                                       !- Default Schedule Set Name
  0,                                      !- Direction of Relative North {deg}
  29.135,                                 !- X Origin {m}
  0,                                      !- Y Origin {m}
  0,                                      !- Z Origin {m}
  {638da397-2d80-487d-8c2d-260b8fa8facd}, !- Building Story Name
  {c1755bae-1005-4b48-8cb5-74f45df2b3c7}, !- Thermal Zone Name
  Yes,                                    !- Part of Total Floor Area
  {19a74545-e816-4d75-84b2-bfad5696f0fe}; !- Design Specification Outdoor Air Object Name

OS:Schedule:Compact,
  {4a642932-dba0-4a0d-8426-1a4dabf67429}, !- Handle
  HTGSETP_SCH,                            !- Name
  {53abef1d-143a-4be9-88a1-40b2062ee2a2}, !- Schedule Type Limits Name
  Through: 12/31,                         !- Field 1
  For: Weekdays,                          !- Field 2
  Until: 06:00,                           !- Field 3
  15.6,                                   !- Field 4
  Until: 21:00,                           !- Field 5
  21.0,                                   !- Field 6
  Until: 24:00,                           !- Field 7
  15.6,                                   !- Field 8
  For SummerDesignDay,                    !- Field 9
  Until: 24:00,                           !- Field 10
  15.6,                                   !- Field 11
  For WinterDesignDay,                    !- Field 12
  Until: 24:00,                           !- Field 13
  21.0,                                   !- Field 14
  For: Saturday,                          !- Field 15
  Until: 06:00,                           !- Field 16
  15.6,                                   !- Field 17
  Until: 22:00,                           !- Field 18
  21.0,                                   !- Field 19
  Until: 24:00,                           !- Field 20
  15.6,                                   !- Field 21
  For: Sunday Holidays AllOtherDays,      !- Field 22
  Until:  8:00,                           !- Field 23
  15.6,                                   !- Field 24
  Until: 19:00,                           !- Field 25
  21.,                                    !- Field 26
  Until: 24:00,                           !- Field 27
  15.6;                                   !- Field 28

OS:ScheduleTypeLimits,
  {53abef1d-143a-4be9-88a1-40b2062ee2a2}, !- Handle
  Temperature,                            !- Name
  -60,                                    !- Lower Limit Value {BasedOnField A4}
  200,                                    !- Upper Limit Value {BasedOnField A4}
  CONTINUOUS,                             !- Numeric Type
  Temperature;                            !- Unit Type

OS:Schedule:Compact,
  {3b16c72b-6be8-4d09-b66c-5e34498ad289}, !- Handle
  CLGSETP_SCH,                            !- Name
  {53abef1d-143a-4be9-88a1-40b2062ee2a2}, !- Schedule Type Limits Name
  Through: 12/31,                         !- Field 1
  For: Weekdays SummerDesignDay,          !- Field 2
  Until: 06:00,                           !- Field 3
  30.0,                                   !- Field 4
  Until: 21:00,                           !- Field 5
  24.0,                                   !- Field 6
  Until: 24:00,                           !- Field 7
  30.0,                                   !- Field 8
  For: Saturday,                          !- Field 9
  Until: 06:00,                           !- Field 10
  30.0,                                   !- Field 11
  Until: 22:00,                           !- Field 12
  24.0,                                   !- Field 13
  Until: 24:00,                           !- Field 14
  30.0,                                   !- Field 15
  For WinterDesignDay,                    !- Field 16
  Until: 24:00,                           !- Field 17
  30.0,                                   !- Field 18
  For: Sunday Holidays AllOtherDays,      !- Field 19
  Until: 8:00,                            !- Field 20
  30.0,                                   !- Field 21
  Until: 19:00,                           !- Field 22
  24.0,                                   !- Field 23
  Until: 24:00,                           !- Field 24
  30.0;                                   !- Field 25

OS:Schedule:Compact,
  {958534af-9156-4912-8377-4c907060ad2e}, !- Handle
  BLDG_LIGHT_SCH,                         !- Name
  {aa46f908-f198-43aa-98f6-df9c66d7263c}, !- Schedule Type Limits Name
  Through: 12/31,                         !- Field 1
  For: Weekdays,                          !- Field 2
  Until: 07:00,                           !- Field 3
  0.05,                                   !- Field 4
  Until: 08:00,                           !- Field 5
  0.2,                                    !- Field 6
  Until: 09:00,                           !- Field 7
  0.5,                                    !- Field 8
  Until: 18:00,                           !- Field 9
  0.9,                                    !- Field 10
  Until: 20:00,                           !- Field 11
  0.6,                                    !- Field 12
  Until: 21:00,                           !- Field 13
  0.5,                                    !- Field 14
  Until: 22:00,                           !- Field 15
  0.2,                                    !- Field 16
  Until: 24:00,                           !- Field 17
  0.05,                                   !- Field 18
  For: Saturday,                          !- Field 19
  Until: 07:00,                           !- Field 20
  0.05,                                   !- Field 21
  Until: 08:00,                           !- Field 22
  0.1,                                    !- Field 23
  Until: 09:00,                           !- Field 24
  0.3,                                    !- Field 25
  Until: 10:00,                           !- Field 26
  0.6,                                    !- Field 27
  Until: 18:00,                           !- Field 28
  0.9,                                    !- Field 29
  Until: 19:00,                           !- Field 30
  0.5,                                    !- Field 31
  Until: 21:00,                           !- Field 32
  0.3,                                    !- Field 33
  Until: 22:00,                           !- Field 34
  0.1,                                    !- Field 35
  Until: 24:00,                           !- Field 36
  0.05,                                   !- Field 37
  For: SummerDesignDay,                   !- Field 38
  Until: 24:00,                           !- Field 39
  1.0,                                    !- Field 40
  For: WinterDesignDay,                   !- Field 41
  Until: 24:00,                           !- Field 42
  0.0,                                    !- Field 43
  For: AllOtherDays,                      !- Field 44
  Until: 08:00,                           !- Field 45
  0.05,                                   !- Field 46
  Until: 10:00,                           !- Field 47
  0.1,                                    !- Field 48
  Until: 12:00,                           !- Field 49
  0.4,                                    !- Field 50
  Until: 17:00,                           !- Field 51
  0.6,                                    !- Field 52
  Until: 18:00,                           !- Field 53
  0.4,                                    !- Field 54
  Until: 19:00,                           !- Field 55
  0.2,                                    !- Field 56
  Until: 24:00,                           !- Field 57
  0.05;                                   !- Field 58

OS:ScheduleTypeLimits,
  {aa46f908-f198-43aa-98f6-df9c66d7263c}, !- Handle
  Fraction,                               !- Name
  0,                                      !- Lower Limit Value {BasedOnField A4}
  1,                                      !- Upper Limit Value {BasedOnField A4}
  CONTINUOUS;                             !- Numeric Type

OS:Surface,
  {71389293-e6a1-4971-b6a4-1b1ecec001ef}, !- Handle
  Back_Space_Floor,                       !- Name
  Floor,                                  !- Surface Type
  {89bad56e-0054-4b39-823d-c95723607451}, !- Construction Name
  {1528d13a-8d9f-449b-b1c3-a987611f1037}, !- Space Name
  Ground,                                 !- Outside Boundary Condition
  ,                                       !- Outside Boundary Condition Object
  NoSun,                                  !- Sun Exposure
  NoWind,                                 !- Wind Exposure
  ,                                       !- View Factor to Ground
  ,                                       !- Number of Vertices
  54.27, 7, 0,                            !- X,Y,Z Vertex 1 {m}
  54.27, 0, 0,                            !- X,Y,Z Vertex 2 {m}
  0, 0, 0,                                !- X,Y,Z Vertex 3 {m}
  0, 7, 0;                                !- X,Y,Z Vertex 4 {m}

OS:Construction,
  {89bad56e-0054-4b39-823d-c95723607451}, !- Handle
  ext-slab,                               !- Name
  ,                                       !- Surface Rendering Name
  {f71ea133-e7cb-4729-b0c3-9cc7695fd6ff}; !- Layer 1

OS:Material,
  {f71ea133-e7cb-4729-b0c3-9cc7695fd6ff}, !- Handle
  HW CONCRETE,                            !- Name
  Rough,                                  !- Roughness
  0.1016,                                 !- Thickness {m}
  1.311,                                  !- Conductivity {W/m-K}
  2240,                                   !- Density {kg/m3}
  836.8,                                  !- Specific Heat {J/kg-K}
  0.9,                                    !- Thermal Absorptance
  0.7,                                    !- Solar Absorptance
  0.7;                                    !- Visible Absorptance

OS:Space,
  {1528d13a-8d9f-449b-b1c3-a987611f1037}, !- Handle
  Back_Space,                             !- Name
  {73da8311-a9a5-426e-8f93-2345be7115b8}, !- Space Type Name
  ,                                       !- Default Construction Set Name
  ,                                       !- Default Schedule Set Name
  0,                                      !- Direction of Relative North {deg}
  0,                                      !- X Origin {m}
  35.27,                                  !- Y Origin {m}
  0,                                      !- Z Origin {m}
  {638da397-2d80-487d-8c2d-260b8fa8facd}, !- Building Story Name
  {73a14c57-1acd-4031-b5b5-058770255950}, !- Thermal Zone Name
  Yes,                                    !- Part of Total Floor Area
  {81b7e0c3-df9f-4679-b6c2-3874849b62a9}; !- Design Specification Outdoor Air Object Name

OS:Material,
  {74702ab0-f284-42e6-9f47-6cc7a952b9c5}, !- Handle
  8IN CONCRETE HW,                        !- Name
  Rough,                                  !- Roughness
  0.2032,                                 !- Thickness {m}
  1.311,                                  !- Conductivity {W/m-K}
  2240,                                   !- Density {kg/m3}
  836.8,                                  !- Specific Heat {J/kg-K}
  0.9,                                    !- Thermal Absorptance
  0.7,                                    !- Solar Absorptance
  0.7;                                    !- Visible Absorptance

OS:Meter,
  {5d3b06df-d182-4bce-8290-abfd31d62206}, !- Handle
  ExteriorEquipment:Electricity,          !- Name
  hourly,                                 !- Reporting Frequency
  False,                                  !- Meter File Only
  False;                                  !- Cumulative

OS:Meter,
  {6f110890-0cd5-4813-bec8-bda6973f2323}, !- Handle
  HeatRejection:Electricity,              !- Name
  hourly,                                 !- Reporting Frequency
  False,                                  !- Meter File Only
  False;                                  !- Cumulative

OS:SizingPeriod:DesignDay,
  {25252ffe-b93e-4ae4-9c73-df390c6543fd}, !- Handle
  CHICAGO Ann Htg 99.6% Condns DB,        !- Name
  -20.6,                                  !- Maximum Dry-Bulb Temperature {C}
  0,                                      !- Daily Dry-Bulb Temperature Range {deltaC}
  -20.6,                                  !- Humidity Indicating Conditions at Maximum Dry-Bulb {BasedOnField A3}
  99063,                                  !- Barometric Pressure {Pa}
  4.9,                                    !- Wind Speed {m/s}
  270,                                    !- Wind Direction {deg}
  0,                                      !- Sky Clearness
  0,                                      !- Rain Indicator
  0,                                      !- Snow Indicator
  21,                                     !- Day of Month
  1,                                      !- Month
  WinterDesignDay,                        !- Day Type
  0,                                      !- Daylight Saving Time Indicator
  Wetbulb,                                !- Humidity Indicating Type
  ,                                       !- Humidity Indicating Day Schedule Name
  ,                                       !- Dry-Bulb Temperature Range Modifier Type
  ,                                       !- Dry-Bulb Temperature Range Modifier Schedule Name
  ASHRAEClearSky;                         !- Solar Model Indicator

OS:Material:NoMass,
  {c7049052-0b97-4030-9dd7-c32dd2bfecad}, !- Handle
  CP02 CARPET PAD,                        !- Name
  VeryRough,                              !- Roughness
  0.2165,                                 !- Thermal Resistance {m2-K/W}
  0.9,                                    !- Thermal Absorptance
  0.7,                                    !- Solar Absorptance
  0.8;                                    !- Visible Absorptance

OS:Surface,
  {1cf278ee-a12d-4a55-b8e1-8b186c5ba41e}, !- Handle
  Front_Retail_Roof,                      !- Name
  RoofCeiling,                            !- Surface Type
  {9ec63623-1cb0-46ed-a5fe-659c8cd58ea2}, !- Construction Name
  {cb410933-a8f4-46d1-9fbc-fb8a7aea9044}, !- Space Name
  Outdoors,                               !- Outside Boundary Condition
  ,                                       !- Outside Boundary Condition Object
  SunExposed,                             !- Sun Exposure
  WindExposed,                            !- Wind Exposure
  ,                                       !- View Factor to Ground
  ,                                       !- Number of Vertices
  25.135, 0, 6.096,                       !- X,Y,Z Vertex 1 {m}
  25.135, 6, 6.096,                       !- X,Y,Z Vertex 2 {m}
  0, 6, 6.096,                            !- X,Y,Z Vertex 3 {m}
  0, 0, 6.096;                            !- X,Y,Z Vertex 4 {m}

OS:Construction,
  {9ec63623-1cb0-46ed-a5fe-659c8cd58ea2}, !- Handle
  IEAD Non-res Roof,                      !- Name
  ,                                       !- Surface Rendering Name
  {5ae0958d-ea87-4bb9-ac9a-173d94fd5f4e}, !- Layer 1
  {3a6925fb-0309-4b3e-913f-a6d10c5bc27b}, !- Layer 2
  {4b057664-cb74-4a5d-adf8-6b0d370beb7b}; !- Layer 3

OS:Material,
  {5ae0958d-ea87-4bb9-ac9a-173d94fd5f4e}, !- Handle
  Roof Membrane,                          !- Name
  VeryRough,                              !- Roughness
  0.0095,                                 !- Thickness {m}
  0.16,                                   !- Conductivity {W/m-K}
  1121.29,                                !- Density {kg/m3}
  1460,                                   !- Specific Heat {J/kg-K}
  0.9,                                    !- Thermal Absorptance
  0.7,                                    !- Solar Absorptance
  0.7;                                    !- Visible Absorptance

OS:Material,
  {3a6925fb-0309-4b3e-913f-a6d10c5bc27b}, !- Handle
  IEAD NonRes Roof Insulation,            !- Name
  MediumRough,                            !- Roughness
  0.127338688569477,                      !- Thickness {m}
  0.049,                                  !- Conductivity {W/m-K}
  265,                                    !- Density {kg/m3}
  836.8,                                  !- Specific Heat {J/kg-K}
  0.9,                                    !- Thermal Absorptance
  0.7,                                    !- Solar Absorptance
  0.7;                                    !- Visible Absorptance

OS:Material,
  {4b057664-cb74-4a5d-adf8-6b0d370beb7b}, !- Handle
  Metal Decking,                          !- Name
  MediumSmooth,                           !- Roughness
  0.0015,                                 !- Thickness {m}
  45.006,                                 !- Conductivity {W/m-K}
  7680,                                   !- Density {kg/m3}
  418.4,                                  !- Specific Heat {J/kg-K}
  0.9,                                    !- Thermal Absorptance
  0.7,                                    !- Solar Absorptance
  0.3;                                    !- Visible Absorptance

OS:Meter,
  {2fbf740a-8cf2-4db3-9bde-5784c354d791}, !- Handle
  WaterSystems:Electricity,               !- Name
  hourly,                                 !- Reporting Frequency
  False,                                  !- Meter File Only
  False;                                  !- Cumulative

OS:Space,
  {45554db1-db87-4818-a222-c2bc618fffa3}, !- Handle
  Core_Retail,                            !- Name
  {2c9f7e58-c552-4f4b-882a-0e789f37426b}, !- Space Type Name
  ,                                       !- Default Construction Set Name
  ,                                       !- Default Schedule Set Name
  0,                                      !- Direction of Relative North {deg}
  0,                                      !- X Origin {m}
  6,                                      !- Y Origin {m}
  0,                                      !- Z Origin {m}
  {638da397-2d80-487d-8c2d-260b8fa8facd}, !- Building Story Name
  {35373d5f-069d-4e77-8942-bf66c7e852be}, !- Thermal Zone Name
  Yes,                                    !- Part of Total Floor Area
  {d2abf5f8-1625-46e4-959b-1dfd29a2b006}; !- Design Specification Outdoor Air Object Name

OS:DesignSpecification:OutdoorAir,
  {d2abf5f8-1625-46e4-959b-1dfd29a2b006}, !- Handle
  SZ DSOA Core_Retail,                    !- Name
  ,                                       !- Outdoor Air Method
  ,                                       !- Outdoor Air Flow per Person {m3/s-person}
  0.0015,                                 !- Outdoor Air Flow per Floor Area {m3/s-m2}
  ,                                       !- Outdoor Air Flow Rate {m3/s}
  ,                                       !- Outdoor Air Flow Air Changes per Hour {1/hr}
  ;                                       !- Outdoor Air Flow Rate Fraction Schedule Name

OS:Space,
  {af9d82c8-182b-4678-ac30-aaa5991d3c7e}, !- Handle
  Point_Of_Sale,                          !- Name
  {2c9f7e58-c552-4f4b-882a-0e789f37426b}, !- Space Type Name
  ,                                       !- Default Construction Set Name
  ,                                       !- Default Schedule Set Name
  0,                                      !- Direction of Relative North {deg}
  0,                                      !- X Origin {m}
  0,                                      !- Y Origin {m}
  0,                                      !- Z Origin {m}
  {638da397-2d80-487d-8c2d-260b8fa8facd}, !- Building Story Name
  {c1755bae-1005-4b48-8cb5-74f45df2b3c7}, !- Thermal Zone Name
  Yes,                                    !- Part of Total Floor Area
  {02cd0156-991b-4f63-a684-cb1b0d37124e}; !- Design Specification Outdoor Air Object Name

OS:Surface,
  {f30e1c3e-2e90-4607-836c-df2336f5a324}, !- Handle
  Point_Of_Sale_Wall_East_1,              !- Name
  Wall,                                   !- Surface Type
  {83a0c6c9-fb6e-410e-9ab5-a9f0908b242c}, !- Construction Name
  {af9d82c8-182b-4678-ac30-aaa5991d3c7e}, !- Space Name
  Surface,                                !- Outside Boundary Condition
  {5fdb1d76-8881-486f-a702-0401b6514436}, !- Outside Boundary Condition Object
  NoSun,                                  !- Sun Exposure
  NoWind,                                 !- Wind Exposure
  ,                                       !- View Factor to Ground
  ,                                       !- Number of Vertices
  25.135, 0, 6.096,                       !- X,Y,Z Vertex 1 {m}
  25.135, 0, 0,                           !- X,Y,Z Vertex 2 {m}
  25.135, 3, 0,                           !- X,Y,Z Vertex 3 {m}
  25.135, 3, 6.096;                       !- X,Y,Z Vertex 4 {m}

OS:Construction,
  {83a0c6c9-fb6e-410e-9ab5-a9f0908b242c}, !- Handle
  int-walls,                              !- Name
  ,                                       !- Surface Rendering Name
  {fcf0c63c-1add-49b6-aca4-f5ef5a90e52b}, !- Layer 1
  {fcf0c63c-1add-49b6-aca4-f5ef5a90e52b}; !- Layer 2

OS:Material,
  {fcf0c63c-1add-49b6-aca4-f5ef5a90e52b}, !- Handle
  1/2IN Gypsum,                           !- Name
  Smooth,                                 !- Roughness
  0.0127,                                 !- Thickness {m}
  0.16,                                   !- Conductivity {W/m-K}
  784.9,                                  !- Density {kg/m3}
  830,                                    !- Specific Heat {J/kg-K}
  0.9,                                    !- Thermal Absorptance
  0.92,                                   !- Solar Absorptance
  0.92;                                   !- Visible Absorptance

OS:Surface,
  {e8cea5b8-7e97-4c6d-9e49-20ed9aec3a7b}, !- Handle
  Back_Space_Roof,                        !- Name
  RoofCeiling,                            !- Surface Type
  {9ec63623-1cb0-46ed-a5fe-659c8cd58ea2}, !- Construction Name
  {1528d13a-8d9f-449b-b1c3-a987611f1037}, !- Space Name
  Outdoors,                               !- Outside Boundary Condition
  ,                                       !- Outside Boundary Condition Object
  SunExposed,                             !- Sun Exposure
  WindExposed,                            !- Wind Exposure
  ,                                       !- View Factor to Ground
  ,                                       !- Number of Vertices
  54.27, 0, 6.096,                        !- X,Y,Z Vertex 1 {m}
  54.27, 7, 6.096,                        !- X,Y,Z Vertex 2 {m}
  0, 7, 6.096,                            !- X,Y,Z Vertex 3 {m}
  0, 0, 6.096;                            !- X,Y,Z Vertex 4 {m}

OS:Meter,
  {4a6f5a2a-5fb6-427d-a69e-f3a461de5ab0}, !- Handle
  Refrigeration:Electricity,              !- Name
  hourly,                                 !- Reporting Frequency
  False,                                  !- Meter File Only
  False;                                  !- Cumulative

OS:Construction,
  {c431b95c-4392-485e-b08d-94dd4ae28556}, !- Handle
  InteriorFurnishings,                    !- Name
  ,                                       !- Surface Rendering Name
  {0e20e9dd-35c7-41e9-b27e-61425994bc88}; !- Layer 1

OS:Material,
  {0e20e9dd-35c7-41e9-b27e-61425994bc88}, !- Handle
  Std Wood 6inch,                         !- Name
  MediumSmooth,                           !- Roughness
  0.15,                                   !- Thickness {m}
  0.12,                                   !- Conductivity {W/m-K}
  540,                                    !- Density {kg/m3}
  1210,                                   !- Specific Heat {J/kg-K}
  0.9,                                    !- Thermal Absorptance
  0.7,                                    !- Solar Absorptance
  0.7;                                    !- Visible Absorptance

OS:Material,
  {5adb715a-79b5-428f-b437-7c298de6331f}, !- Handle
  Mass NonRes Wall Insulation,            !- Name
  MediumRough,                            !- Roughness
  0.0495494599433393,                     !- Thickness {m}
  0.049,                                  !- Conductivity {W/m-K}
  265,                                    !- Density {kg/m3}
  836.8,                                  !- Specific Heat {J/kg-K}
  0.9,                                    !- Thermal Absorptance
  0.7,                                    !- Solar Absorptance
  0.7;                                    !- Visible Absorptance

OS:People:Definition,
  {4a6d3f77-173d-4a17-bfec-58c067d3a678}, !- Handle
  Point_Of_Sale People Definition,        !- Name
  Area/Person,                            !- Number of People Calculation Method
  ,                                       !- Number of People {people}
  ,                                       !- People per Space Floor Area {person/m2}
  6.19,                                   !- Space Floor Area per Person {m2/person}
  0.3,                                    !- Fraction Radiant
  ,                                       !- Sensible Heat Fraction
  ,                                       !- Carbon Dioxide Generation Rate {m3/s-W}
  No,                                     !- Enable ASHRAE 55 Comfort Warnings
  ZoneAveraged;                           !- Mean Radiant Temperature Calculation Type

OS:People,
  {36b8251a-ec29-443b-87f5-7cef43c7cf91}, !- Handle
  Point_Of_Sale People,                   !- Name
  {4a6d3f77-173d-4a17-bfec-58c067d3a678}, !- People Definition Name
  {af9d82c8-182b-4678-ac30-aaa5991d3c7e}, !- Space or SpaceType Name
  {cbc7d5d5-10ac-406e-8c87-f1c4dcbea0f5}, !- Number of People Schedule Name
  {d2d4f458-158e-434a-bccc-0abf12c5abdd}, !- Activity Level Schedule Name
  ,                                       !- Surface Name/Angle Factor List Name