
OS:Version,
  {eec0958b-eef8-4c4e-b9bb-1b70b46edf9f}, !- Handle
  1.8.5;                                  !- Version Identifier

OS:Site,
  {2fc2762f-134d-4b5e-ad36-d962f28e9390}, !- Handle
  USA IL-CHICAGO-OHARE,                   !- Name
  41.77,                                  !- Latitude {deg}
  -87.75,                                 !- Longitude {deg}
  -6,                                     !- Time Zone {hr}
  190,                                    !- Elevation {m}
  City;                                   !- Terrain

OS:SimulationControl,
  {3775eaee-7c85-4d07-a1ce-b1e462a762ff}, !- Handle
  Yes,                                    !- Do Zone Sizing Calculation
  Yes,                                    !- Do System Sizing Calculation
  Yes,                                    !- Do Plant Sizing Calculation
  No,                                     !- Run Simulation for Sizing Periods
  Yes,                                    !- Run Simulation for Weather File Run Periods
  0.04,                                   !- Loads Convergence Tolerance Value
  0.2,                                    !- Temperature Convergence Tolerance Value {deltaC}
  FullInteriorAndExterior,                !- Solar Distribution
  25,                                     !- Maximum Number of Warmup Days
  6;                                      !- Minimum Number of Warmup Days

OS:SubSurface,
  {5fd8c7e0-e743-4601-ac5c-9b00b969f992}, !- Handle
  LGstore1_Wall_1_Door_2,                 !- Name
  GlassDoor,                              !- Sub Surface Type
  {5ff6b5cf-900a-4417-976d-6a9a9a3c235f}, !- Construction Name
  {6092b97c-f876-40dd-b007-65ee7304f755}, !- Surface Name
  ,                                       !- Outside Boundary Condition Object
  ,                                       !- View Factor to Ground
  ,                                       !- Shading Control Name
  ,                                       !- Frame and Divider Name
  1,                                      !- Multiplier
  ,                                       !- Number of Vertices
  10.52, 0, 2.13,                         !- X,Y,Z Vertex 1 {m}
  10.52, 0, 0,                            !- X,Y,Z Vertex 2 {m}
  12.35, 0, 0,                            !- X,Y,Z Vertex 3 {m}
  12.35, 0, 2.13;                         !- X,Y,Z Vertex 4 {m}

OS:Construction,
  {5ff6b5cf-900a-4417-976d-6a9a9a3c235f}, !- Handle
  Window Non-res Fixed,                   !- Name
  ,                                       !- Surface Rendering Name
  {333c6688-2369-4d7b-a687-b4a6e74192f6}; !- Layer 1

OS:WindowMaterial:SimpleGlazingSystem,
  {333c6688-2369-4d7b-a687-b4a6e74192f6}, !- Handle
  NonRes Fixed Assembly Window,           !- Name
  3.23646,                                !- U-Factor {W/m2-K}
  0.39;                                   !- Solar Heat Gain Coefficient

OS:Surface,
  {6092b97c-f876-40dd-b007-65ee7304f755}, !- Handle
  LGstore1_Wall_1,                        !- Name
  Wall,                                   !- Surface Type
  {0fd6f6e6-6d3b-4929-929f-e4733f65b346}, !- Construction Name
  {cb504133-ae78-4bc1-845d-5ab6e8de5c54}, !- Space Name
  Outdoors,                               !- Outside Boundary Condition
  ,                                       !- Outside Boundary Condition Object
  SunExposed,                             !- Sun Exposure
  WindExposed,                            !- Wind Exposure
  ,                                       !- View Factor to Ground
  ,                                       !- Number of Vertices
  0, 0, 5.18,                             !- X,Y,Z Vertex 1 {m}
  0, 0, 0,                                !- X,Y,Z Vertex 2 {m}
  15.24, 0, 0,                            !- X,Y,Z Vertex 3 {m}
  15.24, 0, 5.18;                         !- X,Y,Z Vertex 4 {m}

OS:Construction,
  {0fd6f6e6-6d3b-4929-929f-e4733f65b346}, !- Handle
  Steel Frame Non-res Ext Wall,           !- Name
  ,                                       !- Surface Rendering Name
  {c00ef7cd-1231-48cd-abf0-f2e361ee82cf}, !- Layer 1
  {61335a54-6c99-4a35-b3be-a15bdef86cb0}, !- Layer 2
  {1910e5fd-edbf-4353-a433-a53719db27b4}; !- Layer 3

OS:Material,
  {c00ef7cd-1231-48cd-abf0-f2e361ee82cf}, !- Handle
  Wood Siding,                            !- Name
  MediumSmooth,                           !- Roughness
  0.01,                                   !- Thickness {m}
  0.11,                                   !- Conductivity {W/m-K}
  544.62,                                 !- Density {kg/m3}
  1210,                                   !- Specific Heat {J/kg-K}
  0.9,                                    !- Thermal Absorptance
  0.78,                                   !- Solar Absorptance
  0.78;                                   !- Visible Absorptance

OS:Material,
  {61335a54-6c99-4a35-b3be-a15bdef86cb0}, !- Handle
  Steel Frame NonRes Wall Insulation,     !- Name
  MediumRough,                            !- Roughness
  0.0870564552646045,                     !- Thickness {m}
  0.049,                                  !- Conductivity {W/m-K}
  265,                                    !- Density {kg/m3}
  836.8,                                  !- Specific Heat {J/kg-K}
  0.9,                                    !- Thermal Absorptance
  0.7,                                    !- Solar Absorptance
  0.7;                                    !- Visible Absorptance

OS:Material,
  {1910e5fd-edbf-4353-a433-a53719db27b4}, !- Handle
  1/2IN Gypsum,                           !- Name
  Smooth,                                 !- Roughness
  0.0127,                                 !- Thickness {m}
  0.16,                                   !- Conductivity {W/m-K}
  784.9,                                  !- Density {kg/m3}
  830,                                    !- Specific Heat {J/kg-K}
  0.9,                                    !- Thermal Absorptance
  0.92,                                   !- Solar Absorptance
  0.92;                                   !- Visible Absorptance

OS:Space,
  {cb504133-ae78-4bc1-845d-5ab6e8de5c54}, !- Handle
  LGstore1,                               !- Name
  {a0c327e3-2cca-4d2f-a3c8-9d35ae47dbf5}, !- Space Type Name
  ,                                       !- Default Construction Set Name
  ,                                       !- Default Schedule Set Name
  0,                                      !- Direction of Relative North {deg}
  0,                                      !- X Origin {m}
  0,                                      !- Y Origin {m}
  0,                                      !- Z Origin {m}
  {eb4a1cf7-e281-44c7-b197-b1aa537ed15b}, !- Building Story Name
  {9d5dfedf-6fea-443d-9124-c204a906a1df}, !- Thermal Zone Name
  Yes,                                    !- Part of Total Floor Area
  {ff84daf1-ea77-4bf6-85b2-53e03d8a240e}; !- Design Specification Outdoor Air Object Name

OS:Schedule:Compact,
  {3276fb2f-778d-4289-a8ae-34479dbe319c}, !- Handle
  HTGSETP_SCH,                            !- Name
  {2a165f37-0c16-4139-b194-d5fc0d243350}, !- Schedule Type Limits Name
  Through: 12/31,                         !- Field 1
  For: Weekdays,                          !- Field 2
  Until: 06:00,                           !- Field 3
  15.6,                                   !- Field 4
  Until: 21:00,                           !- Field 5
  21.0,                                   !- Field 6
  Until: 24:00,                           !- Field 7
  15.6,                                   !- Field 8
  For SummerDesignDay,                    !- Field 9
  Until: 24:00,                           !- Field 10
  15.6,                                   !- Field 11
  For WinterDesignDay,                    !- Field 12
  Until: 24:00,                           !- Field 13
  21.0,                                   !- Field 14
  For: Saturday,                          !- Field 15
  Until: 06:00,                           !- Field 16
  15.6,                                   !- Field 17
  Until: 22:00,                           !- Field 18
  21.0,                                   !- Field 19
  Until: 24:00,                           !- Field 20
  15.6,                                   !- Field 21
  For: AllOtherDays,                      !- Field 22
  Until:  8:00,                           !- Field 23
  15.6,                                   !- Field 24
  Until: 19:00,                           !- Field 25
  21.,                                    !- Field 26
  Until: 24:00,                           !- Field 27
  15.6;                                   !- Field 28

OS:ScheduleTypeLimits,
  {2a165f37-0c16-4139-b194-d5fc0d243350}, !- Handle
  Temperature,                            !- Name
  -60,                                    !- Lower Limit Value {BasedOnField A4}
  200,                                    !- Upper Limit Value {BasedOnField A4}
  CONTINUOUS,                             !- Numeric Type
  Temperature;                            !- Unit Type

OS:Schedule:Compact,
  {4d103555-4c87-4ac5-91f4-4232b2a9412b}, !- Handle
  CLGSETP_SCH,                            !- Name
  {2a165f37-0c16-4139-b194-d5fc0d243350}, !- Schedule Type Limits Name
  Through: 12/31,                         !- Field 1
  For: Weekdays SummerDesignDay,          !- Field 2
  Until: 06:00,                           !- Field 3
  30.0,                                   !- Field 4
  Until: 21:00,                           !- Field 5
  24.0,                                   !- Field 6
  Until: 24:00,                           !- Field 7
  30.0,                                   !- Field 8
  For: Saturday,                          !- Field 9
  Until: 06:00,                           !- Field 10
  30.0,                                   !- Field 11
  Until: 22:00,                           !- Field 12
  24.0,                                   !- Field 13
  Until: 24:00,                           !- Field 14
  30.0,                                   !- Field 15
  For WinterDesignDay,                    !- Field 16
  Until: 24:00,                           !- Field 17
  30.0,                                   !- Field 18
  For: Sunday Holidays AllOtherDays,      !- Field 19
  Until: 8:00,                            !- Field 20
  30.0,                                   !- Field 21
  Until: 19:00,                           !- Field 22
  24.0,                                   !- Field 23
  Until: 24:00,                           !- Field 24
  30.0;                                   !- Field 25

OS:Meter,
  {bc82b5ee-da31-45f4-92cd-4e97be30a819}, !- Handle
  WaterSystems:Electricity,               !- Name
  hourly,                                 !- Reporting Frequency
  False,                                  !- Meter File Only
  False;                                  !- Cumulative

OS:SubSurface,
  {8425d765-a3f5-4f08-8292-2f11010b6f51}, !- Handle
  SMstore4_Wall_1_Window_1,               !- Name
  FixedWindow,                            !- Sub Surface Type
  {5ff6b5cf-900a-4417-976d-6a9a9a3c235f}, !- Construction Name
  {221f77df-4a7b-4081-9f66-6f3f25811027}, !- Surface Name
  ,                                       !- Outside Boundary Condition Object
  ,                                       !- View Factor to Ground
  ,                                       !- Shading Control Name
  ,                                       !- Frame and Divider Name
  1,                                      !- Multiplier
  ,                                       !- Number of Vertices
  38.71, 0, 2.43,                         !- X,Y,Z Vertex 1 {m}
  38.71, 0, 0.91,                         !- X,Y,Z Vertex 2 {m}
  40.84, 0, 0.91,                         !- X,Y,Z Vertex 3 {m}
  40.84, 0, 2.43;                         !- X,Y,Z Vertex 4 {m}

OS:Surface,
  {221f77df-4a7b-4081-9f66-6f3f25811027}, !- Handle
  SMstore4_Wall_1,                        !- Name
  Wall,                                   !- Surface Type
  {0fd6f6e6-6d3b-4929-929f-e4733f65b346}, !- Construction Name
  {5820aa95-d839-446d-9470-2855b6ad9e8c}, !- Space Name
  Outdoors,                               !- Outside Boundary Condition
  ,                                       !- Outside Boundary Condition Object
  SunExposed,                             !- Sun Exposure
  WindExposed,                            !- Wind Exposure
  ,                                       !- View Factor to Ground
  ,                                       !- Number of Vertices
  38.1, 0, 5.18,                          !- X,Y,Z Vertex 1 {m}
  38.1, 0, 0,                             !- X,Y,Z Vertex 2 {m}
  45.72, 0, 0,                            !- X,Y,Z Vertex 3 {m}
  45.72, 0, 5.18;                         !- X,Y,Z Vertex 4 {m}

OS:Space,
  {5820aa95-d839-446d-9470-2855b6ad9e8c}, !- Handle
  SMstore4,                               !- Name
  {a0c327e3-2cca-4d2f-a3c8-9d35ae47dbf5}, !- Space Type Name
  ,                                       !- Default Construction Set Name
  ,                                       !- Default Schedule Set Name
  0,                                      !- Direction of Relative North {deg}
  0,                                      !- X Origin {m}
  0,                                      !- Y Origin {m}
  0,                                      !- Z Origin {m}
  {eb4a1cf7-e281-44c7-b197-b1aa537ed15b}, !- Building Story Name
  {25273925-7373-4b20-acc1-670ae979860f}, !- Thermal Zone Name
  Yes,                                    !- Part of Total Floor Area
  {d648d700-ef11-4812-832e-c595f9f6f36d}; !- Design Specification Outdoor Air Object Name

OS:SpaceInfiltration:DesignFlowRate,
  {fb1e84c5-5067-47bc-948a-9975f367254b}, !- Handle
  LGstore2_Infiltration,                  !- Name
  {5b659883-62a5-498c-bc50-61f8c8589e3e}, !- Space or SpaceType Name
  {e7568935-ed54-4d14-8117-312fa9b3edbb}, !- Schedule Name
  Flow/ExteriorArea,                      !- Design Flow Rate Calculation Method
  ,                                       !- Design Flow Rate {m3/s}
  ,                                       !- Flow per Space Floor Area {m3/s-m2}
  0.000302,                               !- Flow per Exterior Surface Area {m3/s-m2}
  ,                                       !- Air Changes per Hour {1/hr}
  1,                                      !- Constant Term Coefficient
  0,                                      !- Temperature Term Coefficient
  0,                                      !- Velocity Term Coefficient
  0;                                      !- Velocity Squared Term Coefficient

OS:Space,
  {5b659883-62a5-498c-bc50-61f8c8589e3e}, !- Handle
  LGstore2,                               !- Name
  {a0c327e3-2cca-4d2f-a3c8-9d35ae47dbf5}, !- Space Type Name
  ,                                       !- Default Construction Set Name
  ,                                       !- Default Schedule Set Name
  0,                                      !- Direction of Relative North {deg}
  0,                                      !- X Origin {m}
  0,                                      !- Y Origin {m}
  0,                                      !- Z Origin {m}
  {eb4a1cf7-e281-44c7-b197-b1aa537ed15b}, !- Building Story Name
  {25273925-7373-4b20-acc1-670ae979860f}, !- Thermal Zone Name
  Yes,                                    !- Part of Total Floor Area
  {eed35647-d0f2-48fc-b4ee-37d2ba4b85f6}; !- Design Specification Outdoor Air Object Name

OS:Schedule:Compact,
  {e7568935-ed54-4d14-8117-312fa9b3edbb}, !- Handle
  INFIL_HALF_ON_SCH,                      !- Name
  {0acbdcf2-6313-4bb4-b417-453fc8ebf70d}, !- Schedule Type Limits Name
  Through: 12/31,                         !- Field 1
  For: Weekdays SummerDesignDay,          !- Field 2
  Until: 06:00,                           !- Field 3
  1.0,                                    !- Field 4
  Until: 21:00,                           !- Field 5
  0.5,                                    !- Field 6
  Until: 24:00,                           !- Field 7
  1.0,                                    !- Field 8
  For: Saturday,                          !- Field 9
  Until: 06:00,                           !- Field 10
  1.0,                                    !- Field 11
  Until: 22:00,                           !- Field 12
  0.5,                                    !- Field 13
  Until: 24:00,                           !- Field 14
  1.0,                                    !- Field 15
  For: WinterDesignDay,                   !- Field 16
  Until: 24:00,                           !- Field 17
  1.0,                                    !- Field 18
  For: Sunday Holidays AllOtherDays,      !- Field 19
  Until: 08:00,                           !- Field 20
  1.0,                                    !- Field 21
  Until: 17:00,                           !- Field 22
  0.5,                                    !- Field 23
  Until: 24:00,                           !- Field 24
  1.0;                                    !- Field 25

OS:ScheduleTypeLimits,
  {0acbdcf2-6313-4bb4-b417-453fc8ebf70d}, !- Handle
  Fraction,                               !- Name
  0,                                      !- Lower Limit Value {BasedOnField A4}
  1,                                      !- Upper Limit Value {BasedOnField A4}
  CONTINUOUS;                             !- Numeric Type

OS:Lights:Definition,
  {98354831-469b-436e-b880-a609972a8faf}, !- Handle
  SMstore2_Lights Definition,             !- Name
  Watts/Area,                             !- Design Level Calculation Method
  ,                                       !- Lighting Level {W}
  18.29,                                  !- Watts per Space Floor Area {W/m2}
  ,                                       !- Watts per Person {W/person}
  0.7,                                    !- Fraction Radiant
  0.2,                                    !- Fraction Visible
  0,                                      !- Return Air Fraction
  No;                                     !- Return Air Fraction Calculated from Plenum Temperature

OS:Lights,
  {4b379c35-1fd9-4650-ad03-8c3b7cb30d65}, !- Handle
  SMstore2_Lights,                        !- Name
  {98354831-469b-436e-b880-a609972a8faf}, !- Lights Definition Name
  {0b357f42-792a-4664-9a04-be055f90480e}, !- Space or SpaceType Name
  {95c2c9c0-bc2b-4fc6-9a60-8c145b646627}, !- Schedule Name
  1,                                      !- Fraction Replaceable
  ,                                       !- Multiplier
  General;                                !- End-Use Subcategory

OS:Space,
  {0b357f42-792a-4664-9a04-be055f90480e}, !- Handle
  SMstore2,                               !- Name
  {a0c327e3-2cca-4d2f-a3c8-9d35ae47dbf5}, !- Space Type Name
  ,                                       !- Default Construction Set Name
  ,                                       !- Default Schedule Set Name
  0,                                      !- Direction of Relative North {deg}
  0,                                      !- X Origin {m}
  0,                                      !- Y Origin {m}
  0,                                      !- Z Origin {m}
  {eb4a1cf7-e281-44c7-b197-b1aa537ed15b}, !- Building Story Name
  {25273925-7373-4b20-acc1-670ae979860f}, !- Thermal Zone Name
  Yes,                                    !- Part of Total Floor Area
  {b695fe6b-0b58-404f-a947-aff48396e503}; !- Design Specification Outdoor Air Object Name

OS:Schedule:Compact,
  {95c2c9c0-bc2b-4fc6-9a60-8c145b646627}, !- Handle
  BLDG_LIGHT_SCH,                         !- Name
  {0acbdcf2-6313-4bb4-b417-453fc8ebf70d}, !- Schedule Type Limits Name
  Through: 12/31,                         !- Field 1
  For: Weekdays,                          !- Field 2
  Until: 07:00,                           !- Field 3
  0.05,                                   !- Field 4
  Until: 08:00,                           !- Field 5
  0.2,                                    !- Field 6
  Until: 09:00,                           !- Field 7
  0.5,                                    !- Field 8
  Until: 18:00,                           !- Field 9
  0.9,                                    !- Field 10
  Until: 20:00,                           !- Field 11
  0.6,                                    !- Field 12
  Until: 21:00,                           !- Field 13
  0.5,                                    !- Field 14
  Until: 22:00,                           !- Field 15
  0.2,                                    !- Field 16
  Until: 24:00,                           !- Field 17
  0.05,                                   !- Field 18
  For: Saturday,                          !- Field 19
  Until: 07:00,                           !- Field 20
  0.05,                                   !- Field 21
  Until: 08:00,                           !- Field 22
  0.1,                                    !- Field 23
  Until: 09:00,                           !- Field 24
  0.3,                                    !- Field 25
  Until: 10:00,                           !- Field 26
  0.6,                                    !- Field 27
  Until: 18:00,                           !- Field 28
  0.9,                                    !- Field 29
  Until: 19:00,                           !- Field 30
  0.5,                                    !- Field 31
  Until: 21:00,                           !- Field 32
  0.3,                                    !- Field 33
  Until: 22:00,                           !- Field 34
  0.1,                                    !- Field 35
  Until: 24:00,                           !- Field 36
  0.05,                                   !- Field 37
  For: SummerDesignDay,                   !- Field 38
  Until: 24:00,                           !- Field 39
  1.0,                                    !- Field 40
  For: WinterDesignDay,                   !- Field 41
  Until: 24:00,                           !- Field 42
  0.0,                                    !- Field 43
  For: Sunday Holidays AllOtherDays,      !- Field 44
  Until: 08:00,                           !- Field 45
  0.05,                                   !- Field 46
  Until: 10:00,                           !- Field 47
  0.1,                                    !- Field 48
  Until: 12:00,                           !- Field 49
  0.4,                                    !- Field 50
  Until: 17:00,                           !- Field 51
  0.6,                                    !- Field 52
  Until: 18:00,                           !- Field 53
  0.4,                                    !- Field 54
  Until: 19:00,                           !- Field 55
  0.2,                                    !- Field 56
  Until: 24:00,                           !- Field 57
  0.05;                                   !- Field 58

OS:SubSurface,
  {b535a43b-d53c-4344-82e1-0fdc4a5c2a94}, !- Handle
  SMstore4_Wall_1_Door,                   !- Name
  GlassDoor,                              !- Sub Surface Type
  {5ff6b5cf-900a-4417-976d-6a9a9a3c235f}, !- Construction Name
  {221f77df-4a7b-4081-9f66-6f3f25811027}, !- Surface Name
  ,                                       !- Outside Boundary Condition Object
  ,                                       !- View Factor to Ground
  ,                                       !- Shading Control Name
  ,                                       !- Frame and Divider Name
  1,                                      !- Multiplier
  ,                                       !- Number of Vertices
  41, 0, 2.13,                            !- X,Y,Z Vertex 1 {m}
  41, 0, 0,                               !- X,Y,Z Vertex 2 {m}
  42.82, 0, 0,                            !- X,Y,Z Vertex 3 {m}
  42.82, 0, 2.13;                         !- X,Y,Z Vertex 4 {m}

OS:SubSurface,
  {d547c622-cc16-4ae0-9989-355fbd465a8e}, !- Handle
  SMstore4_Wall_3_Door,                   !- Name
  Door,                                   !- Sub Surface Type
  {341e84d7-368c-4ab8-ad53-46eb88bf23ed}, !- Construction Name
  {6038b7e3-47fd-4e19-b44c-f1efa3fbfd77}, !- Surface Name
  ,                                       !- Outside Boundary Condition Object
  ,                                       !- View Factor to Ground
  ,                                       !- Shading Control Name
  ,                                       !- Frame and Divider Name
  1,                                      !- Multiplier
  ,                                       !- Number of Vertices
  42.82, 22.86, 2.13,                     !- X,Y,Z Vertex 1 {m}
  42.82, 22.86, 0,                        !- X,Y,Z Vertex 2 {m}
  41, 22.86, 0,                           !- X,Y,Z Vertex 3 {m}
  41, 22.86, 2.13;                        !- X,Y,Z Vertex 4 {m}

OS:Construction,
  {341e84d7-368c-4ab8-ad53-46eb88bf23ed}, !- Handle
  Swinging Door Non-res,                  !- Name
  ,                                       !- Surface Rendering Name
  {7418ff4d-7d0d-4492-a734-7ec8034861e9}; !- Layer 1

OS:Material:NoMass,
  {7418ff4d-7d0d-4492-a734-7ec8034861e9}, !- Handle
  Opaque Door panel NonRes,               !- Name
  MediumRough,                            !- Roughness
  0.101897046243647,                      !- Thermal Resistance {m2-K/W}
  0.9,                                    !- Thermal Absorptance
  0.7,                                    !- Solar Absorptance
  0.7;                                    !- Visible Absorptance

OS:Surface,
  {6038b7e3-47fd-4e19-b44c-f1efa3fbfd77}, !- Handle
  SMstore4_Wall_3,                        !- Name
  Wall,                                   !- Surface Type
  {0fd6f6e6-6d3b-4929-929f-e4733f65b346}, !- Construction Name
  {5820aa95-d839-446d-9470-2855b6ad9e8c}, !- Space Name
  Outdoors,                               !- Outside Boundary Condition
  ,                                       !- Outside Boundary Condition Object
  SunExposed,                             !- Sun Exposure
  WindExposed,                            !- Wind Exposure
  ,                                       !- View Factor to Ground
  ,                                       !- Number of Vertices
  45.72, 22.86, 5.18,                     !- X,Y,Z Vertex 1 {m}
  45.72, 22.86, 0,                        !- X,Y,Z Vertex 2 {m}
  38.1, 22.86, 0,                         !- X,Y,Z Vertex 3 {m}
  38.1, 22.86, 5.18;                      !- X,Y,Z Vertex 4 {m}

OS:SubSurface,
  {8df1be08-510d-4bd1-ae2c-c44c13f45dad}, !- Handle
  SMstore2_Wall_3_Door,                   !- Name
  Door,                                   !- Sub Surface Type
  {341e84d7-368c-4ab8-ad53-46eb88bf23ed}, !- Construction Name
  {a8aade14-92c8-4d1f-b12f-6bae08b97b7c}, !- Surface Name
  ,                                       !- Outside Boundary Condition Object
  ,                                       !- View Factor to Ground
  ,                                       !- Shading Control Name
  ,                                       !- Frame and Divider Name
  1,                                      !- Multiplier
  ,                                       !- Number of Vertices
  27.58, 22.86, 2.13,                     !- X,Y,Z Vertex 1 {m}
  27.58, 22.86, 0,                        !- X,Y,Z Vertex 2 {m}
  25.76, 22.86, 0,                        !- X,Y,Z Vertex 3 {m}
  25.76, 22.86, 2.13;                     !- X,Y,Z Vertex 4 {m}

OS:Surface,
  {a8aade14-92c8-4d1f-b12f-6bae08b97b7c}, !- Handle
  SMstore2_Wall_3,                        !- Name
  Wall,                                   !- Surface Type
  {0fd6f6e6-6d3b-4929-929f-e4733f65b346}, !- Construction Name
  {0b357f42-792a-4664-9a04-be055f90480e}, !- Space Name
  Outdoors,                               !- Outside Boundary Condition
  ,                                       !- Outside Boundary Condition Object
  SunExposed,                             !- Sun Exposure
  WindExposed,                            !- Wind Exposure
  ,                                       !- View Factor to Ground
  ,                                       !- Number of Vertices
  30.48, 22.86, 5.18,                     !- X,Y,Z Vertex 1 {m}
  30.48, 22.86, 0,                        !- X,Y,Z Vertex 2 {m}
  22.86, 22.86, 0,                        !- X,Y,Z Vertex 3 {m}
  22.86, 22.86, 5.18;                     !- X,Y,Z Vertex 4 {m}

OS:SubSurface,
  {ec8c7b61-7306-4072-976d-16299bbea834}, !- Handle
  SMstore1_Wall_1_Window_2,               !- Name
  FixedWindow,                            !- Sub Surface Type
  {5ff6b5cf-900a-4417-976d-6a9a9a3c235f}, !- Construction Name
  {43c7de46-46a7-4dd2-8076-7a60fd81069e}, !- Surface Name
  ,                                       !- Outside Boundary Condition Object
  ,                                       !- View Factor to Ground
  ,                                       !- Shading Control Name
  ,                                       !- Frame and Divider Name
  1,                                      !- Multiplier
  ,                                       !- Number of Vertices
  20.12, 0, 2.43,                         !- X,Y,Z Vertex 1 {m}
  20.12, 0, 0.91,                         !- X,Y,Z Vertex 2 {m}
  22.25, 0, 0.91,                         !- X,Y,Z Vertex 3 {m}
  22.25, 0, 2.43;                         !- X,Y,Z Vertex 4 {m}

OS:Surface,
  {43c7de46-46a7-4dd2-8076-7a60fd81069e}, !- Handle
  SMstore1_Wall_1,                        !- Name
  Wall,                                   !- Surface Type
  {0fd6f6e6-6d3b-4929-929f-e4733f65b346}, !- Construction Name
  {5e0618bf-8aa1-4a1f-aa3f-74fd14fe82fe}, !- Space Name
  Outdoors,                               !- Outside Boundary Condition
  ,                                       !- Outside Boundary Condition Object
  SunExposed,                             !- Sun Exposure
  WindExposed,                            !- Wind Exposure
  ,                                       !- View Factor to Ground
  ,                                       !- Number of Vertices
  15.24, 0, 5.18,                         !- X,Y,Z Vertex 1 {m}
  15.24, 0, 0,                            !- X,Y,Z Vertex 2 {m}
  22.86, 0, 0,                            !- X,Y,Z Vertex 3 {m}
  22.86, 0, 5.18;                         !- X,Y,Z Vertex 4 {m}
