
OS:Version,
  {77f82054-e654-4b33-aee3-fdb07117af06}, !- Handle
  1.8.5;                                  !- Version Identifier

OS:Site,
  {10d843c9-afd3-487d-91dd-1dcce78ccbd9}, !- Handle
  USA IL-CHICAGO-OHARE,                   !- Name
  41.77,                                  !- Latitude {deg}
  -87.75,                                 !- Longitude {deg}
  -6,                                     !- Time Zone {hr}
  190,                                    !- Elevation {m}
  City;                                   !- Terrain

OS:SimulationControl,
  {6210cabb-6e6f-43f3-bb73-3ebf58e8f010}, !- Handle
  Yes,                                    !- Do Zone Sizing Calculation
  Yes,                                    !- Do System Sizing Calculation
  Yes,                                    !- Do Plant Sizing Calculation
  No,                                     !- Run Simulation for Sizing Periods
  Yes,                                    !- Run Simulation for Weather File Run Periods
  0.04,                                   !- Loads Convergence Tolerance Value
  0.2,                                    !- Temperature Convergence Tolerance Value {deltaC}
  FullInteriorAndExterior,                !- Solar Distribution
  25,                                     !- Maximum Number of Warmup Days
  6;                                      !- Minimum Number of Warmup Days

OS:Space,
  {49dcc5c2-e40a-434b-8e29-ca1b96e148c4}, !- Handle
  LGstore1,                               !- Name
  {b14092e5-f293-43ff-a0f7-14304dc2a6df}, !- Space Type Name
  ,                                       !- Default Construction Set Name
  ,                                       !- Default Schedule Set Name
  0,                                      !- Direction of Relative North {deg}
  0,                                      !- X Origin {m}
  0,                                      !- Y Origin {m}
  0,                                      !- Z Origin {m}
  {e6208354-1ec2-4b4b-a25d-966fa56f22a7}, !- Building Story Name
  {e05e9fce-8744-4418-b3cf-22366daac45d}, !- Thermal Zone Name
  Yes,                                    !- Part of Total Floor Area
  {53a8c26f-d389-44c8-9541-fd61f9a30d3f}; !- Design Specification Outdoor Air Object Name

OS:Schedule:Compact,
  {68cfeb48-988a-4b18-b0f6-78e7ed6f3b62}, !- Handle
  HTGSETP_SCH,                            !- Name
  {45e92128-8d25-44fa-8f33-c07df884ee78}, !- Schedule Type Limits Name
  Through: 12/31,                         !- Field 1
  For: Weekdays,                          !- Field 2
  Until: 06:00,                           !- Field 3
  15.6,                                   !- Field 4
  Until: 21:00,                           !- Field 5
  21.0,                                   !- Field 6
  Until: 24:00,                           !- Field 7
  15.6,                                   !- Field 8
  For SummerDesignDay,                    !- Field 9
  Until: 24:00,                           !- Field 10
  15.6,                                   !- Field 11
  For WinterDesignDay,                    !- Field 12
  Until: 24:00,                           !- Field 13
  21.0,                                   !- Field 14
  For: Saturday,                          !- Field 15
  Until: 06:00,                           !- Field 16
  15.6,                                   !- Field 17
  Until: 22:00,                           !- Field 18
  21.0,                                   !- Field 19
  Until: 24:00,                           !- Field 20
  15.6,                                   !- Field 21
  For: AllOtherDays,                      !- Field 22
  Until:  8:00,                           !- Field 23
  15.6,                                   !- Field 24
  Until: 19:00,                           !- Field 25
  21.,                                    !- Field 26
  Until: 24:00,                           !- Field 27
  15.6;                                   !- Field 28

OS:ScheduleTypeLimits,
  {45e92128-8d25-44fa-8f33-c07df884ee78}, !- Handle
  Temperature,                            !- Name
  -60,                                    !- Lower Limit Value {BasedOnField A4}
  200,                                    !- Upper Limit Value {BasedOnField A4}
  CONTINUOUS,                             !- Numeric Type
  Temperature;                            !- Unit Type

OS:Schedule:Compact,
  {fc214b0a-2b0a-473c-ab26-2522e3629398}, !- Handle
  CLGSETP_SCH,                            !- Name
  {45e92128-8d25-44fa-8f33-c07df884ee78}, !- Schedule Type Limits Name
  Through: 12/31,                         !- Field 1
  For: Weekdays SummerDesignDay,          !- Field 2
  Until: 06:00,                           !- Field 3
  30.0,                                   !- Field 4
  Until: 21:00,                           !- Field 5
  24.0,                                   !- Field 6
  Until: 24:00,                           !- Field 7
  30.0,                                   !- Field 8
  For: Saturday,                          !- Field 9
  Until: 06:00,                           !- Field 10
  30.0,                                   !- Field 11
  Until: 22:00,                           !- Field 12
  24.0,                                   !- Field 13
  Until: 24:00,                           !- Field 14
  30.0,                                   !- Field 15
  For WinterDesignDay,                    !- Field 16
  Until: 24:00,                           !- Field 17
  30.0,                                   !- Field 18
  For: Sunday Holidays AllOtherDays,      !- Field 19
  Until: 8:00,                            !- Field 20
  30.0,                                   !- Field 21
  Until: 19:00,                           !- Field 22
  24.0,                                   !- Field 23
  Until: 24:00,                           !- Field 24
  30.0;                                   !- Field 25

OS:Surface,
  {23960a3b-64d3-4c25-bdb1-f8d98fca14d2}, !- Handle
  SMstore4_Roof,                          !- Name
  RoofCeiling,                            !- Surface Type
  {99bf6893-94ad-4510-a2fc-dfb8f5164953}, !- Construction Name
  {1283ee37-038c-4ef9-8a35-9b402ded2785}, !- Space Name
  Outdoors,                               !- Outside Boundary Condition
  ,                                       !- Outside Boundary Condition Object
  SunExposed,                             !- Sun Exposure
  WindExposed,                            !- Wind Exposure
  ,                                       !- View Factor to Ground
  ,                                       !- Number of Vertices
  45.72, 0, 5.18,                         !- X,Y,Z Vertex 1 {m}
  45.72, 22.86, 5.18,                     !- X,Y,Z Vertex 2 {m}
  38.1, 22.86, 5.18,                      !- X,Y,Z Vertex 3 {m}
  38.1, 0, 5.18;                          !- X,Y,Z Vertex 4 {m}

OS:Construction,
  {99bf6893-94ad-4510-a2fc-dfb8f5164953}, !- Handle
  IEAD Non-res Roof,                      !- Name
  ,                                       !- Surface Rendering Name
  {b67d32ef-a343-4258-85fd-3927f1c72148}, !- Layer 1
  {b8b872f8-f80e-4426-9cd0-7194f29ee071}, !- Layer 2
  {180b27ae-5ffc-4005-980f-a98fb0daa8f0}; !- Layer 3

OS:Material,
  {b67d32ef-a343-4258-85fd-3927f1c72148}, !- Handle
  Roof Membrane,                          !- Name
  VeryRough,                              !- Roughness
  0.0095,                                 !- Thickness {m}
  0.16,                                   !- Conductivity {W/m-K}
  1121.29,                                !- Density {kg/m3}
  1460,                                   !- Specific Heat {J/kg-K}
  0.9,                                    !- Thermal Absorptance
  0.7,                                    !- Solar Absorptance
  0.7;                                    !- Visible Absorptance

OS:Material,
  {b8b872f8-f80e-4426-9cd0-7194f29ee071}, !- Handle
  IEAD NonRes Roof Insulation,            !- Name
  MediumRough,                            !- Roughness
  0.127338688569477,                      !- Thickness {m}
  0.049,                                  !- Conductivity {W/m-K}
  265,                                    !- Density {kg/m3}
  836.8,                                  !- Specific Heat {J/kg-K}
  0.9,                                    !- Thermal Absorptance
  0.7,                                    !- Solar Absorptance
  0.7;                                    !- Visible Absorptance

OS:Material,
  {180b27ae-5ffc-4005-980f-a98fb0daa8f0}, !- Handle
  Metal Decking,                          !- Name
  MediumSmooth,                           !- Roughness
  0.0015,                                 !- Thickness {m}
  45.006,                                 !- Conductivity {W/m-K}
  7680,                                   !- Density {kg/m3}
  418.4,                                  !- Specific Heat {J/kg-K}
  0.9,                                    !- Thermal Absorptance
  0.7,                                    !- Solar Absorptance
  0.3;                                    !- Visible Absorptance

OS:Space,
  {1283ee37-038c-4ef9-8a35-9b402ded2785}, !- Handle
  SMstore4,                               !- Name
  {b14092e5-f293-43ff-a0f7-14304dc2a6df}, !- Space Type Name
  ,                                       !- Default Construction Set Name
  ,                                       !- Default Schedule Set Name
  0,                                      !- Direction of Relative North {deg}
  0,                                      !- X Origin {m}
  0,                                      !- Y Origin {m}
  0,                                      !- Z Origin {m}
  {e6208354-1ec2-4b4b-a25d-966fa56f22a7}, !- Building Story Name
  {77789ea4-6f63-4576-ae77-f4df5920c63c}, !- Thermal Zone Name
  Yes,                                    !- Part of Total Floor Area
  {542c361b-8e8d-4df8-a496-abaf94baedf5}; !- Design Specification Outdoor Air Object Name

OS:Curve:Cubic,
  {6e1d0f07-b80c-490e-b480-4bb8e51a21d0}, !- Handle
  ConstantCubic,                          !- Name
  1,                                      !- Coefficient1 Constant
  0,                                      !- Coefficient2 x
  0,                                      !- Coefficient3 x**2
  0,                                      !- Coefficient4 x**3
  -100,                                   !- Minimum Value of x {BasedOnField A2}
  100;                                    !- Maximum Value of x {BasedOnField A2}

OS:Surface,
  {0eb2ea32-7349-4204-993d-a0cf8c36bad0}, !- Handle
  SMstore8_Wall_2,                        !- Name
  Wall,                                   !- Surface Type
  {9e49d057-04f4-4a65-9ea2-ad22b699640c}, !- Construction Name
  {08c1dd85-2cc4-4764-aadd-27cc4aca9dcb}, !- Space Name
  Surface,                                !- Outside Boundary Condition
  {ecc5cb99-5adb-4714-b63d-33c6fae1da15}, !- Outside Boundary Condition Object
  NoSun,                                  !- Sun Exposure
  NoWind,                                 !- Wind Exposure
  ,                                       !- View Factor to Ground
  ,                                       !- Number of Vertices
  83.82, 22.86, 5.18,                     !- X,Y,Z Vertex 1 {m}
  83.82, 22.86, 0,                        !- X,Y,Z Vertex 2 {m}
  83.82, 0, 0,                            !- X,Y,Z Vertex 3 {m}
  83.82, 0, 5.18;                         !- X,Y,Z Vertex 4 {m}

OS:Construction,
  {9e49d057-04f4-4a65-9ea2-ad22b699640c}, !- Handle
  int-walls,                              !- Name
  ,                                       !- Surface Rendering Name
  {8b0345fa-7c59-43c3-96bc-4e21232383af}, !- Layer 1
  {8b0345fa-7c59-43c3-96bc-4e21232383af}; !- Layer 2

OS:Material,
  {8b0345fa-7c59-43c3-96bc-4e21232383af}, !- Handle
  1/2IN Gypsum,                           !- Name
  Smooth,                                 !- Roughness
  0.0127,                                 !- Thickness {m}
  0.16,                                   !- Conductivity {W/m-K}
  784.9,                                  !- Density {kg/m3}
  830,                                    !- Specific Heat {J/kg-K}
  0.9,                                    !- Thermal Absorptance
  0.92,                                   !- Solar Absorptance
  0.92;                                   !- Visible Absorptance

OS:Space,
  {08c1dd85-2cc4-4764-aadd-27cc4aca9dcb}, !- Handle
  SMstore8,                               !- Name
  {b14092e5-f293-43ff-a0f7-14304dc2a6df}, !- Space Type Name
  ,                                       !- Default Construction Set Name
  ,                                       !- Default Schedule Set Name
  0,                                      !- Direction of Relative North {deg}
  0,                                      !- X Origin {m}
  0,                                      !- Y Origin {m}
  0,                                      !- Z Origin {m}
  {e6208354-1ec2-4b4b-a25d-966fa56f22a7}, !- Building Story Name
  {d7c986c0-34c0-4c05-a97e-88b3d23e6b25}, !- Thermal Zone Name
  Yes,                                    !- Part of Total Floor Area
  {674a3b80-d7c7-4bac-ba3c-471549abf924}; !- Design Specification Outdoor Air Object Name

OS:Material:NoMass,
  {43dc823d-f8b8-4b40-846f-0c162674ed00}, !- Handle
  CP02 CARPET PAD,                        !- Name
  VeryRough,                              !- Roughness
  0.2165,                                 !- Thermal Resistance {m2-K/W}
  0.9,                                    !- Thermal Absorptance
  0.7,                                    !- Solar Absorptance
  0.8;                                    !- Visible Absorptance

OS:Surface,
  {02acae2d-2d96-47d6-b104-3cfcdc845953}, !- Handle
  SMstore5_Wall_3,                        !- Name
  Wall,                                   !- Surface Type
  {15233324-1656-44da-b660-0da999bdf2bc}, !- Construction Name
  {6687226a-5da1-473a-adb0-f55262f21d3c}, !- Space Name
  Outdoors,                               !- Outside Boundary Condition
  ,                                       !- Outside Boundary Condition Object
  SunExposed,                             !- Sun Exposure
  WindExposed,                            !- Wind Exposure
  ,                                       !- View Factor to Ground
  ,                                       !- Number of Vertices
  68.58, 22.86, 5.18,                     !- X,Y,Z Vertex 1 {m}
  68.58, 22.86, 0,                        !- X,Y,Z Vertex 2 {m}
  60.96, 22.86, 0,                        !- X,Y,Z Vertex 3 {m}
  60.96, 22.86, 5.18;                     !- X,Y,Z Vertex 4 {m}

OS:Construction,
  {15233324-1656-44da-b660-0da999bdf2bc}, !- Handle
  Steel Frame Non-res Ext Wall,           !- Name
  ,                                       !- Surface Rendering Name
  {5ebd943e-3ae4-4afe-b35f-b16a1bf4cd49}, !- Layer 1
  {1efcf6c1-2489-468e-ba28-49d433d2b0e3}, !- Layer 2
  {8b0345fa-7c59-43c3-96bc-4e21232383af}; !- Layer 3

OS:Material,
  {5ebd943e-3ae4-4afe-b35f-b16a1bf4cd49}, !- Handle
  Wood Siding,                            !- Name
  MediumSmooth,                           !- Roughness
  0.01,                                   !- Thickness {m}
  0.11,                                   !- Conductivity {W/m-K}
  544.62,                                 !- Density {kg/m3}
  1210,                                   !- Specific Heat {J/kg-K}
  0.9,                                    !- Thermal Absorptance
  0.78,                                   !- Solar Absorptance
  0.78;                                   !- Visible Absorptance

OS:Material,
  {1efcf6c1-2489-468e-ba28-49d433d2b0e3}, !- Handle
  Steel Frame NonRes Wall Insulation,     !- Name
  MediumRough,                            !- Roughness
  0.0870564552646045,                     !- Thickness {m}
  0.049,                                  !- Conductivity {W/m-K}
  265,                                    !- Density {kg/m3}
  836.8,                                  !- Specific Heat {J/kg-K}
  0.9,                                    !- Thermal Absorptance
  0.7,                                    !- Solar Absorptance
  0.7;                                    !- Visible Absorptance

OS:Space,
  {6687226a-5da1-473a-adb0-f55262f21d3c}, !- Handle
  SMstore5,                               !- Name
  {b14092e5-f293-43ff-a0f7-14304dc2a6df}, !- Space Type Name
  ,                                       !- Default Construction Set Name
  ,                                       !- Default Schedule Set Name
  0,                                      !- Direction of Relative North {deg}
  0,                                      !- X Origin {m}
  0,                                      !- Y Origin {m}
  0,                                      !- Z Origin {m}
  {e6208354-1ec2-4b4b-a25d-966fa56f22a7}, !- Building Story Name
  {77789ea4-6f63-4576-ae77-f4df5920c63c}, !- Thermal Zone Name
  Yes,                                    !- Part of Total Floor Area
  {b0535e44-6313-476e-bb56-79a9fdb4cd57}; !- Design Specification Outdoor Air Object Name

OS:Meter,
  {9d73d415-64e6-49ca-9cc8-e74eea81b310}, !- Handle
  Humidifier:Electricity,                 !- Name
  hourly,                                 !- Reporting Frequency
  False,                                  !- Meter File Only
  False;                                  !- Cumulative

OS:Lights:Definition,
  {692bd890-70f5-4616-b38f-b7ac3e5b99b4}, !- Handle
  SMstore1_Lights Definition,             !- Name
  Watts/Area,                             !- Design Level Calculation Method
  ,                                       !- Lighting Level {W}
  23.99,                                  !- Watts per Space Floor Area {W/m2}
  ,                                       !- Watts per Person {W/person}
  0.7,                                    !- Fraction Radiant
  0.2,                                    !- Fraction Visible
  0,                                      !- Return Air Fraction
  No;                                     !- Return Air Fraction Calculated from Plenum Temperature

OS:Lights,
  {534d3c50-3c02-448c-be49-26a8eb47d1d8}, !- Handle
  SMstore1_Lights,                        !- Name
  {692bd890-70f5-4616-b38f-b7ac3e5b99b4}, !- Lights Definition Name
  {13bd5407-2963-4878-b064-cd0cdd31dd86}, !- Space or SpaceType Name
  {2707b790-d4a7-4895-a231-85e72d34ec6b}, !- Schedule Name
  1,                                      !- Fraction Replaceable
  ,                                       !- Multiplier
  General;                                !- End-Use Subcategory

OS:Space,
  {13bd5407-2963-4878-b064-cd0cdd31dd86}, !- Handle
  SMstore1,                               !- Name
  {b14092e5-f293-43ff-a0f7-14304dc2a6df}, !- Space Type Name
  ,                                       !- Default Construction Set Name
  ,                                       !- Default Schedule Set Name
  0,                                      !- Direction of Relative North {deg}
  0,                                      !- X Origin {m}
  0,                                      !- Y Origin {m}
  0,                                      !- Z Origin {m}
  {e6208354-1ec2-4b4b-a25d-966fa56f22a7}, !- Building Story Name
  {77789ea4-6f63-4576-ae77-f4df5920c63c}, !- Thermal Zone Name
  Yes,                                    !- Part of Total Floor Area
  {b5220040-1f81-4335-8a72-df55512edaa0}; !- Design Specification Outdoor Air Object Name

OS:Schedule:Compact,
  {2707b790-d4a7-4895-a231-85e72d34ec6b}, !- Handle
  BLDG_LIGHT_SCH,                         !- Name
  {0149accc-fe7c-4ef5-921f-8b40fdf5db8d}, !- Schedule Type Limits Name
  Through: 12/31,                         !- Field 1
  For: Weekdays,                          !- Field 2
  Until: 07:00,                           !- Field 3
  0.05,                                   !- Field 4
  Until: 08:00,                           !- Field 5
  0.2,                                    !- Field 6
  Until: 09:00,                           !- Field 7
  0.5,                                    !- Field 8
  Until: 18:00,                           !- Field 9
  0.9,                                    !- Field 10
  Until: 20:00,                           !- Field 11
  0.6,                                    !- Field 12
  Until: 21:00,                           !- Field 13
  0.5,                                    !- Field 14
  Until: 22:00,                           !- Field 15
  0.2,                                    !- Field 16
  Until: 24:00,                           !- Field 17
  0.05,                                   !- Field 18
  For: Saturday,                          !- Field 19
  Until: 07:00,                           !- Field 20
  0.05,                                   !- Field 21
  Until: 08:00,                           !- Field 22
  0.1,                                    !- Field 23
  Until: 09:00,                           !- Field 24
  0.3,                                    !- Field 25
  Until: 10:00,                           !- Field 26
  0.6,                                    !- Field 27
  Until: 18:00,                           !- Field 28
  0.9,                                    !- Field 29
  Until: 19:00,                           !- Field 30
  0.5,                                    !- Field 31
  Until: 21:00,                           !- Field 32
  0.3,                                    !- Field 33
  Until: 22:00,                           !- Field 34
  0.1,                                    !- Field 35
  Until: 24:00,                           !- Field 36
  0.05,                                   !- Field 37
  For: SummerDesignDay,                   !- Field 38
  Until: 24:00,                           !- Field 39
  1.0,                                    !- Field 40
  For: WinterDesignDay,                   !- Field 41
  Until: 24:00,                           !- Field 42
  0.0,                                    !- Field 43
  For: Sunday Holidays AllOtherDays,      !- Field 44
  Until: 08:00,                           !- Field 45
  0.05,                                   !- Field 46
  Until: 10:00,                           !- Field 47
  0.1,                                    !- Field 48
  Until: 12:00,                           !- Field 49
  0.4,                                    !- Field 50
  Until: 17:00,                           !- Field 51
  0.6,                                    !- Field 52
  Until: 18:00,                           !- Field 53
  0.4,                                    !- Field 54
  Until: 19:00,                           !- Field 55
  0.2,                                    !- Field 56
  Until: 24:00,                           !- Field 57
  0.05;                                   !- Field 58

OS:ScheduleTypeLimits,
  {0149accc-fe7c-4ef5-921f-8b40fdf5db8d}, !- Handle
  Fraction,                               !- Name
  0,                                      !- Lower Limit Value {BasedOnField A4}
  1,                                      !- Upper Limit Value {BasedOnField A4}
  CONTINUOUS;                             !- Numeric Type

OS:Curve:Biquadratic,
  {64f5c4c5-b26e-46f5-954d-7389fbd75696}, !- Handle
  Measured_LowSpeedCoolCapLSFT,           !- Name
  0.4136,                                 !- Coefficient1 Constant
  0.03105,                                !- Coefficient2 x
  0,                                      !- Coefficient3 x**2
  0.006952,                               !- Coefficient4 y
  -0.0002128,                             !- Coefficient5 y**2
  0,                                      !- Coefficient6 x*y
  11.1,                                   !- Minimum Value of x {BasedOnField A2}
  29.4,                                   !- Maximum Value of x {BasedOnField A2}
  10,                                     !- Minimum Value of y {BasedOnField A3}
  50.3;                                   !- Maximum Value of y {BasedOnField A3}

OS:Surface,
  {652306c4-d311-467e-9a9f-c5095841959f}, !- Handle
  SMstore8_Roof,                          !- Name
  RoofCeiling,                            !- Surface Type
  {99bf6893-94ad-4510-a2fc-dfb8f5164953}, !- Construction Name
  {08c1dd85-2cc4-4764-aadd-27cc4aca9dcb}, !- Space Name
  Outdoors,                               !- Outside Boundary Condition
  ,                                       !- Outside Boundary Condition Object
  SunExposed,                             !- Sun Exposure
  WindExposed,                            !- Wind Exposure
  ,                                       !- View Factor to Ground
  ,                                       !- Number of Vertices
  91.44, 0, 5.18,                         !- X,Y,Z Vertex 1 {m}
  91.44, 22.86, 5.18,                     !- X,Y,Z Vertex 2 {m}
  83.82, 22.86, 5.18,                     !- X,Y,Z Vertex 3 {m}
  83.82, 0, 5.18;                         !- X,Y,Z Vertex 4 {m}

OS:Material,
  {ed29bd1c-03b4-4fae-88bc-d4a6e1dc6293}, !- Handle
  HW CONCRETE,                            !- Name
  Rough,                                  !- Roughness
  0.1016,                                 !- Thickness {m}
  1.311,                                  !- Conductivity {W/m-K}
  2240,                                   !- Density {kg/m3}
  836.8,                                  !- Specific Heat {J/kg-K}
  0.9,                                    !- Thermal Absorptance
  0.7,                                    !- Solar Absorptance
  0.7;                                    !- Visible Absorptance

OS:InternalMass:Definition,
  {056cd5ce-403b-4292-a4c1-6e8fa383304a}, !- Handle
  SMstore3 Internal Mass Definition,      !- Name
  {aff4feee-c6d2-4407-b0c2-65cde0938c83}, !- Construction Name
  SurfaceArea,                            !- Design Level Calculation Method
  348.3864,                               !- Surface Area {m2}
  ,                                       !- Surface Area per Space Floor Area {dimensionless}
  ;                                       !- Surface Area per Person {m2/person}

OS:Construction,
  {aff4feee-c6d2-4407-b0c2-65cde0938c83}, !- Handle
  InteriorFurnishings,                    !- Name
  ,                                       !- Surface Rendering Name
  {e6096662-8c82-4f4d-b716-c5bbfafba801}; !- Layer 1

OS:Material,
  {e6096662-8c82-4f4d-b716-c5bbfafba801}, !- Handle
  Std Wood 6inch,                         !- Name
  MediumSmooth,                           !- Roughness
  0.15,                                   !- Thickness {m}
  0.12,                                   !- Conductivity {W/m-K}
  540,                                    !- Density {kg/m3}
  1210,                                   !- Specific Heat {J/kg-K}
  0.9,                                    !- Thermal Absorptance
  0.7,                                    !- Solar Absorptance
  0.7;                                    !- Visible Absorptance

OS:InternalMass,
  {1089521a-c8e7-4081-bb0d-b10e5c0bf1b4}, !- Handle
  SMstore3 Internal Mass,                 !- Name
  {056cd5ce-403b-4292-a4c1-6e8fa383304a}, !- Internal Mass Definition Name
  {fee54490-bf79-469d-bc79-35991fee5b9e}; !- Space or SpaceType Name

OS:Space,
  {fee54490-bf79-469d-bc79-35991fee5b9e}, !- Handle
  SMstore3,                               !- Name
  {b14092e5-f293-43ff-a0f7-14304dc2a6df}, !- Space Type Name
  ,                                       !- Default Construction Set Name
  ,                                       !- Default Schedule Set Name
  0,                                      !- Direction of Relative North {deg}
  0,                                      !- X Origin {m}
  0,                                      !- Y Origin {m}
  0,                                      !- Z Origin {m}
  {e6208354-1ec2-4b4b-a25d-966fa56f22a7}, !- Building Story Name
  {77789ea4-6f63-4576-ae77-f4df5920c63c}, !- Thermal Zone Name
  Yes,                                    !- Part of Total Floor Area
  {67b11041-2078-426f-b7e6-1b617bab86b1}; !- Design Specification Outdoor Air Object Name

OS:WindowMaterial:SimpleGlazingSystem,
  {0f02aed4-ffd0-4135-9f6d-cf1aa6f939a8}, !- Handle
  NonRes Fixed Assembly Window,           !- Name
  3.23646,                                !- U-Factor {W/m2-K}
  0.39;                                   !- Solar Heat Gain Coefficient

OS:Lights:Definition,
  {943da151-6934-45bd-b74a-fa3f62a7ae0c}, !- Handle
  SMstore3_Lights Definition,             !- Name
  Watts/Area,                             !- Design Level Calculation Method
  ,                                       !- Lighting Level {W}
  18.29,                                  !- Watts per Space Floor Area {W/m2}
  ,                                       !- Watts per Person {W/person}
  0.7,                                    !- Fraction Radiant
  0.2,                                    !- Fraction Visible
  0,                                      !- Return Air Fraction
  No;                                     !- Return Air Fraction Calculated from Plenum Temperature

OS:Lights,
  {272ae282-7116-43cf-a5b4-d0ca2ef7a5ac}, !- Handle
  SMstore3_Lights,                        !- Name
  {943da151-6934-45bd-b74a-fa3f62a7ae0c}, !- Lights Definition Name
  {fee54490-bf79-469d-bc79-35991fee5b9e}, !- Space or SpaceType Name
  {2707b790-d4a7-4895-a231-85e72d34ec6b}, !- Schedule Name
  1,                                      !- Fraction Replaceable
  ,                                       !- Multiplier
  General;                                !- End-Use Subcategory

OS:Meter,
  {d25042b3-a3fd-49e9-8916-490714b3b054}, !- Handle
  Heating:Gas,                            !- Name
  hourly,                                 !- Reporting Frequency
  False,                                  !- Meter File Only
  False;                                  !- Cumulative

OS:Surface,
  {cb9202f2-d028-445b-8f3a-683bea821179}, !- Handle
  SMstore3_Wall_2,                        !- Name
  Wall,                                   !- Surface Type
  {9e49d057-04f4-4a65-9ea2-ad22b699640c}, !- Construction Name
  {fee54490-bf79-469d-bc79-35991fee5b9e}, !- Space Name