
OS:Version,
  {94302b65-ca31-4933-a112-1beeb4fd27d1}, !- Handle
  1.8.5;                                  !- Version Identifier

OS:Site,
  {7cd54412-707b-43d0-bec8-51dd8461e217}, !- Handle
  USA IL-CHICAGO-OHARE,                   !- Name
  41.77,                                  !- Latitude {deg}
  -87.75,                                 !- Longitude {deg}
  -6,                                     !- Time Zone {hr}
  190,                                    !- Elevation {m}
  City;                                   !- Terrain

OS:SimulationControl,
  {15bebe19-a035-479b-823b-e538d8d4c1f0}, !- Handle
  Yes,                                    !- Do Zone Sizing Calculation
  Yes,                                    !- Do System Sizing Calculation
  Yes,                                    !- Do Plant Sizing Calculation
  No,                                     !- Run Simulation for Sizing Periods
  Yes,                                    !- Run Simulation for Weather File Run Periods
  0.04,                                   !- Loads Convergence Tolerance Value
  0.2,                                    !- Temperature Convergence Tolerance Value {deltaC}
  FullInteriorAndExterior,                !- Solar Distribution
  25,                                     !- Maximum Number of Warmup Days
  6;                                      !- Minimum Number of Warmup Days

OS:Material,
  {dd154bb4-8b27-4eca-bcec-6d870d163923}, !- Handle
  1IN Stucco,                             !- Name
  Smooth,                                 !- Roughness
  0.0253,                                 !- Thickness {m}
  0.6918,                                 !- Conductivity {W/m-K}
  1858,                                   !- Density {kg/m3}
  837,                                    !- Specific Heat {J/kg-K}
  0.9,                                    !- Thermal Absorptance
  0.92,                                   !- Solar Absorptance
  0.92;                                   !- Visible Absorptance

OS:Meter,
  {e75971ef-73bd-46b7-b3bc-96dff97630f3}, !- Handle
  Refrigeration:Electricity,              !- Name
  hourly,                                 !- Reporting Frequency
  False,                                  !- Meter File Only
  False;                                  !- Cumulative

OS:Curve:Quadratic,
  {33cb7e8b-75ec-4fae-8ca8-27b73c8448a1}, !- Handle
  RACKD_RackCOPfTCurve,                   !- Name
  1.7603,                                 !- Coefficient1 Constant
  -0.0377,                                !- Coefficient2 x
  0.0004,                                 !- Coefficient3 x**2
  10,                                     !- Minimum Value of x {BasedOnField A2}
  35;                                     !- Maximum Value of x {BasedOnField A2}

OS:Material,
  {7f40b219-6a45-4581-992b-66f7d3e02f00}, !- Handle
  Metal Decking,                          !- Name
  MediumSmooth,                           !- Roughness
  0.0015,                                 !- Thickness {m}
  45.006,                                 !- Conductivity {W/m-K}
  7680,                                   !- Density {kg/m3}
  418.4,                                  !- Specific Heat {J/kg-K}
  0.9,                                    !- Thermal Absorptance
  0.7,                                    !- Solar Absorptance
  0.3;                                    !- Visible Absorptance

OS:Curve:Biquadratic,
  {bb4aa0e9-b08d-490f-991c-456368ff5b32}, !- Handle
  Cool-EIR-fT,                            !- Name
  0.28687133,                             !- Coefficient1 Constant
  0.023902164,                            !- Coefficient2 x
  -0.000810648,                           !- Coefficient3 x**2
  0.013458546,                            !- Coefficient4 y
  0.0003389364,                           !- Coefficient5 y**2
  -0.0004870044,                          !- Coefficient6 x*y
  -100,                                   !- Minimum Value of x {BasedOnField A2}
  100,                                    !- Maximum Value of x {BasedOnField A2}
  -100,                                   !- Minimum Value of y {BasedOnField A3}
  100;                                    !- Maximum Value of y {BasedOnField A3}

OS:Material,
  {d79cf40b-c093-45da-abab-c7dceaf0e8b7}, !- Handle
  Metal Siding,                           !- Name
  Smooth,                                 !- Roughness
  0.0015,                                 !- Thickness {m}
  44.96,                                  !- Conductivity {W/m-K}
  7688.86,                                !- Density {kg/m3}
  410,                                    !- Specific Heat {J/kg-K}
  0.9,                                    !- Thermal Absorptance
  0.2,                                    !- Solar Absorptance
  0.2;                                    !- Visible Absorptance

OS:Surface,
  {8a1c899d-8908-4a1e-92f9-8629b0ca2407}, !- Handle
  Sales_Wall_North-PPAutoCreateOther,     !- Name
  Wall,                                   !- Surface Type
  {38c4b7e9-a8fe-4455-bc32-96fe08a7f316}, !- Construction Name
  {3b626c37-5345-42cd-8696-ec9d0be315a7}, !- Space Name
  Surface,                                !- Outside Boundary Condition
  {0613622c-7097-4941-ae08-e4013c43d2b8}, !- Outside Boundary Condition Object
  NoSun,                                  !- Sun Exposure
  NoWind,                                 !- Wind Exposure
  ,                                       !- View Factor to Ground
  ,                                       !- Number of Vertices
  -26.1698, 13.5765, 6.096,               !- X,Y,Z Vertex 1 {m}
  -26.1698, 13.5765, 0,                   !- X,Y,Z Vertex 2 {m}
  26.8875, 13.5765, 0,                    !- X,Y,Z Vertex 3 {m}
  26.8875, 13.5765, 6.096;                !- X,Y,Z Vertex 4 {m}

OS:Construction,
  {38c4b7e9-a8fe-4455-bc32-96fe08a7f316}, !- Handle
  int-walls,                              !- Name
  ,                                       !- Surface Rendering Name
  {a2bd1c8e-e62c-4178-9fa5-fdeac6fff10e}, !- Layer 1
  {a2bd1c8e-e62c-4178-9fa5-fdeac6fff10e}; !- Layer 2

OS:Material,
  {a2bd1c8e-e62c-4178-9fa5-fdeac6fff10e}, !- Handle
  1/2IN Gypsum,                           !- Name
  Smooth,                                 !- Roughness
  0.0127,                                 !- Thickness {m}
  0.16,                                   !- Conductivity {W/m-K}
  784.9,                                  !- Density {kg/m3}
  830,                                    !- Specific Heat {J/kg-K}
  0.9,                                    !- Thermal Absorptance
  0.92,                                   !- Solar Absorptance
  0.92;                                   !- Visible Absorptance

OS:Space,
  {3b626c37-5345-42cd-8696-ec9d0be315a7}, !- Handle
  DryStorage,                             !- Name
  {72f03f6f-ade7-42d4-8055-9ce50cca0453}, !- Space Type Name
  ,                                       !- Default Construction Set Name
  ,                                       !- Default Schedule Set Name
  0,                                      !- Direction of Relative North {deg}
  0,                                      !- X Origin {m}
  0,                                      !- Y Origin {m}
  0,                                      !- Z Origin {m}
  {7be45fde-2c94-4397-89ee-50fde70bba7a}, !- Building Story Name
  {06c0a855-9cf7-4684-9071-997531137fb2}, !- Thermal Zone Name
  Yes,                                    !- Part of Total Floor Area
  {8e7453f7-1288-4b16-be55-aac6da939bdd}; !- Design Specification Outdoor Air Object Name

OS:Schedule:Compact,
  {c5cc9d8b-f7c6-4fdf-bf06-f25d1c914650}, !- Handle
  HTGSETP_SCH,                            !- Name
  {8de72bcd-d67c-46a0-b770-c3c0cb89bf6d}, !- Schedule Type Limits Name
  Through: 12/31,                         !- Field 1
  For SummerDesignDay,                    !- Field 2
  Until: 24:00,                           !- Field 3
  15.6,                                   !- Field 4
  For: AllOtherDays,                      !- Field 5
  Until:  6:00,                           !- Field 6
  15.6,                                   !- Field 7
  Until: 22:00,                           !- Field 8
  21.,                                    !- Field 9
  Until: 24:00,                           !- Field 10
  15.6;                                   !- Field 11

OS:ScheduleTypeLimits,
  {8de72bcd-d67c-46a0-b770-c3c0cb89bf6d}, !- Handle
  Temperature,                            !- Name
  -60,                                    !- Lower Limit Value {BasedOnField A4}
  200,                                    !- Upper Limit Value {BasedOnField A4}
  CONTINUOUS,                             !- Numeric Type
  Temperature;                            !- Unit Type

OS:Schedule:Compact,
  {f6884a34-50ba-4ddf-a848-dc78661fb147}, !- Handle
  CLGSETP_SCH,                            !- Name
  {8de72bcd-d67c-46a0-b770-c3c0cb89bf6d}, !- Schedule Type Limits Name
  Through: 12/31,                         !- Field 1
  For WinterDesignDay,                    !- Field 2
  Until: 24:00,                           !- Field 3
  30.0,                                   !- Field 4
  For: AllOtherDays,                      !- Field 5
  Until: 6:00,                            !- Field 6
  30.0,                                   !- Field 7
  Until: 22:00,                           !- Field 8
  24.0,                                   !- Field 9
  Until: 24:00,                           !- Field 10
  30.0;                                   !- Field 11

OS:ScheduleTypeLimits,
  {44f88475-c782-4eb4-9c2d-96ed1104ee6a}, !- Handle
  Control Type,                           !- Name
  0,                                      !- Lower Limit Value {BasedOnField A4}
  4,                                      !- Upper Limit Value {BasedOnField A4}
  DISCRETE,                               !- Numeric Type
  ControlMode;                            !- Unit Type

OS:People:Definition,
  {ca2cb347-be04-4d79-9607-0d2a0952f20c}, !- Handle
  Office People Definition,               !- Name
  Area/Person,                            !- Number of People Calculation Method
  ,                                       !- Number of People {people}
  ,                                       !- People per Space Floor Area {person/m2}
  18.58,                                  !- Space Floor Area per Person {m2/person}
  0.3,                                    !- Fraction Radiant
  ,                                       !- Sensible Heat Fraction
  ,                                       !- Carbon Dioxide Generation Rate {m3/s-W}
  No,                                     !- Enable ASHRAE 55 Comfort Warnings
  ZoneAveraged;                           !- Mean Radiant Temperature Calculation Type

OS:People,
  {a65bb69d-e0b8-4da5-91e4-14e6863fd8e1}, !- Handle
  Office People,                          !- Name
  {ca2cb347-be04-4d79-9607-0d2a0952f20c}, !- People Definition Name
  {efdb296f-ec60-4402-9a95-a1edafd37a7c}, !- Space or SpaceType Name
  {dfbcd0a3-44f8-4cdd-b881-6568c35c4e41}, !- Number of People Schedule Name
  {8b249f91-52a6-4f19-b7ca-fb3afd74eb31}, !- Activity Level Schedule Name
  ,                                       !- Surface Name/Angle Factor List Name
  {92b496fa-bafb-4a75-a11e-a5d73c2e6682}; !- Work Efficiency Schedule Name

OS:Space,
  {efdb296f-ec60-4402-9a95-a1edafd37a7c}, !- Handle
  Office,                                 !- Name
  {c9d979bb-008d-46d8-a603-6401d65b6c78}, !- Space Type Name
  ,                                       !- Default Construction Set Name
  ,                                       !- Default Schedule Set Name
  0,                                      !- Direction of Relative North {deg}
  0,                                      !- X Origin {m}
  0,                                      !- Y Origin {m}
  0,                                      !- Z Origin {m}
  {7be45fde-2c94-4397-89ee-50fde70bba7a}, !- Building Story Name
  {e3da67fa-c235-45ee-80da-8389cb766c6f}, !- Thermal Zone Name
  Yes,                                    !- Part of Total Floor Area
  {2d74a729-3af5-4d0f-8ea3-b0c9028388d9}; !- Design Specification Outdoor Air Object Name

OS:Schedule:Compact,
  {dfbcd0a3-44f8-4cdd-b881-6568c35c4e41}, !- Handle
  BLDG_OCC_SCH,                           !- Name
  {4e77f3df-786a-421d-ad61-7dfb2af5f78d}, !- Schedule Type Limits Name
  Through: 12/31,                         !- Field 1
  For: Weekdays,                          !- Field 2
  Until: 06:00,                           !- Field 3
  0.0,                                    !- Field 4
  Until: 08:00,                           !- Field 5
  0.1,                                    !- Field 6
  Until: 09:00,                           !- Field 7
  0.2,                                    !- Field 8
  Until: 11:00,                           !- Field 9
  0.5,                                    !- Field 10
  Until: 15:00,                           !- Field 11
  0.7,                                    !- Field 12
  Until: 16:00,                           !- Field 13
  0.8,                                    !- Field 14
  Until: 17:00,                           !- Field 15
  0.7,                                    !- Field 16
  Until: 19:00,                           !- Field 17
  0.5,                                    !- Field 18
  Until: 22:00,                           !- Field 19
  0.3,                                    !- Field 20
  Until: 24:00,                           !- Field 21
  0.0,                                    !- Field 22
  For: SummerDesignDay,                   !- Field 23
  Until: 24:00,                           !- Field 24
  1.0,                                    !- Field 25
  For: Saturday,                          !- Field 26
  Until: 06:00,                           !- Field 27
  0.0,                                    !- Field 28
  Until: 08:00,                           !- Field 29
  0.1,                                    !- Field 30
  Until: 09:00,                           !- Field 31
  0.2,                                    !- Field 32
  Until: 10:00,                           !- Field 33
  0.5,                                    !- Field 34
  Until: 11:00,                           !- Field 35
  0.6,                                    !- Field 36
  Until: 17:00,                           !- Field 37
  0.8,                                    !- Field 38
  Until: 18:00,                           !- Field 39
  0.6,                                    !- Field 40
  Until: 21:00,                           !- Field 41
  0.2,                                    !- Field 42
  Until: 22:00,                           !- Field 43
  0.1,                                    !- Field 44
  Until: 24:00,                           !- Field 45
  0.0,                                    !- Field 46
  For: WinterDesignDay,                   !- Field 47
  Until: 24:00,                           !- Field 48
  0.0,                                    !- Field 49
  For: Sunday Holidays AllOtherDays,      !- Field 50
  Until: 06:00,                           !- Field 51
  0.0,                                    !- Field 52
  Until: 10:00,                           !- Field 53
  0.1,                                    !- Field 54
  Until: 12:00,                           !- Field 55
  0.2,                                    !- Field 56
  Until: 17:00,                           !- Field 57
  0.4,                                    !- Field 58
  Until: 18:00,                           !- Field 59
  0.2,                                    !- Field 60
  Until: 22:00,                           !- Field 61
  0.1,                                    !- Field 62
  Until: 24:00,                           !- Field 63
  0.0;                                    !- Field 64

OS:ScheduleTypeLimits,
  {4e77f3df-786a-421d-ad61-7dfb2af5f78d}, !- Handle
  Fraction,                               !- Name
  0,                                      !- Lower Limit Value {BasedOnField A4}
  1,                                      !- Upper Limit Value {BasedOnField A4}
  CONTINUOUS;                             !- Numeric Type

OS:Schedule:Compact,
  {8b249f91-52a6-4f19-b7ca-fb3afd74eb31}, !- Handle
  ACTIVITY_SCH,                           !- Name
  {67906756-0639-4bbe-abdb-8b5004d47ab4}, !- Schedule Type Limits Name
  Through: 12/31,                         !- Field 1
  For: AllDays,                           !- Field 2
  Until: 24:00,                           !- Field 3
  120.;                                   !- Field 4

OS:ScheduleTypeLimits,
  {2b0d6dac-7fdc-470a-ba24-af780dbb2f2f}, !- Handle
  {d8d8a93e-b6b2-4731-8265-8d75c0dde6d9}; !- Name

OS:ScheduleTypeLimits,
  {67906756-0639-4bbe-abdb-8b5004d47ab4}, !- Handle
  ActivityLevel,                          !- Name
  0,                                      !- Lower Limit Value {BasedOnField A4}
  ,                                       !- Upper Limit Value {BasedOnField A4}
  Continuous,                             !- Numeric Type
  ActivityLevel;                          !- Unit Type

OS:Schedule:Compact,
  {92b496fa-bafb-4a75-a11e-a5d73c2e6682}, !- Handle
  WORK_EFF_SCH,                           !- Name
  {4e77f3df-786a-421d-ad61-7dfb2af5f78d}, !- Schedule Type Limits Name
  Through: 12/31,                         !- Field 1
  For: AllDays,                           !- Field 2
  Until: 24:00,                           !- Field 3
  0.0;                                    !- Field 4

OS:ElectricEquipment:Definition,
  {f4479c6f-0906-4121-b819-6bc70034055c}, !- Handle
  Office_MiscPlug_Equip Definition,       !- Name
  Watts/Area,                             !- Design Level Calculation Method
  ,                                       !- Design Level {W}
  8.07,                                   !- Watts per Space Floor Area {W/m2}
  ,                                       !- Watts per Person {W/person}
  0,                                      !- Fraction Latent
  0.5,                                    !- Fraction Radiant
  0;                                      !- Fraction Lost

OS:ElectricEquipment,
  {5a6c6962-78af-4712-bf7d-422767fcce69}, !- Handle
  Office_MiscPlug_Equip,                  !- Name
  {f4479c6f-0906-4121-b819-6bc70034055c}, !- Electric Equipment Definition Name
  {efdb296f-ec60-4402-9a95-a1edafd37a7c}, !- Space or SpaceType Name
  {ec19ce2a-7924-4657-a095-f809abfad7a5}, !- Schedule Name
  ,                                       !- Multiplier
  MiscPlug;                               !- End-Use Subcategory

OS:Schedule:Compact,
  {ec19ce2a-7924-4657-a095-f809abfad7a5}, !- Handle
  BLDG_EQUIP_SCH,                         !- Name
  {4e77f3df-786a-421d-ad61-7dfb2af5f78d}, !- Schedule Type Limits Name
  Through: 12/31,                         !- Field 1
  For: Weekdays,                          !- Field 2
  Until: 06:00,                           !- Field 3
  0.2,                                    !- Field 4
  Until: 08:00,                           !- Field 5
  0.4,                                    !- Field 6
  Until: 09:00,                           !- Field 7
  0.7,                                    !- Field 8
  Until: 18:00,                           !- Field 9
  0.9,                                    !- Field 10
  Until: 20:00,                           !- Field 11
  0.8,                                    !- Field 12
  Until: 21:00,                           !- Field 13
  0.7,                                    !- Field 14
  Until: 22:00,                           !- Field 15
  0.4,                                    !- Field 16
  Until: 24:00,                           !- Field 17
  0.2,                                    !- Field 18
  For: Saturday,                          !- Field 19
  Until: 06:00,                           !- Field 20
  0.15,                                   !- Field 21
  Until: 08:00,                           !- Field 22
  0.3,                                    !- Field 23
  Until: 09:00,                           !- Field 24
  0.5,                                    !- Field 25
  Until: 10:00,                           !- Field 26
  0.8,                                    !- Field 27
  Until: 18:00,                           !- Field 28
  0.9,                                    !- Field 29
  Until: 19:00,                           !- Field 30
  0.7,                                    !- Field 31
  Until: 21:00,                           !- Field 32
  0.5,                                    !- Field 33
  Until: 22:00,                           !- Field 34
  0.3,                                    !- Field 35
  Until: 24:00,                           !- Field 36
  0.15,                                   !- Field 37
  For: SummerDesignDay,                   !- Field 38
  Until: 24:00,                           !- Field 39
  1.0,                                    !- Field 40
  For: WinterDesignDay,                   !- Field 41
  Until: 24:00,                           !- Field 42
  0.0,                                    !- Field 43
  For: Sunday Holidays AllOtherDays,      !- Field 44
  Until: 06:00,                           !- Field 45
  0.15,                                   !- Field 46
  Until: 10:00,                           !- Field 47
  0.3,                                    !- Field 48
  Until: 12:00,                           !- Field 49
  0.6,                                    !- Field 50
  Until: 17:00,                           !- Field 51
  0.8,                                    !- Field 52
  Until: 18:00,                           !- Field 53
  0.6,                                    !- Field 54
  Until: 22:00,                           !- Field 55
  0.4,                                    !- Field 56
  Until: 24:00,                           !- Field 57
  0.15;                                   !- Field 58

OS:Schedule:Compact,
  {c341d4a1-6228-4fcd-9b31-ceea453825b2}, !- Handle
  Water Equipment Sensible fract sched,   !- Name
  {4e77f3df-786a-421d-ad61-7dfb2af5f78d}, !- Schedule Type Limits Name
  Through: 12/31,                         !- Field 1
  For: AllDays,                           !- Field 2
  Until: 24:00,                           !- Field 3
  0.2;                                    !- Field 4

OS:Schedule:Compact,
  {06434d9a-8ccd-4911-a811-b7cab9b7d1f5}, !- Handle
  Dual Zone Control Type Sched,           !- Name
  {44f88475-c782-4eb4-9c2d-96ed1104ee6a}, !- Schedule Type Limits Name
  Through: 12/31,                         !- Field 1
  For: AllDays,                           !- Field 2
  Until: 24:00,                           !- Field 3
  4;                                      !- Field 4

OS:Curve:Cubic,
  {dcd4e049-c8a2-4e90-8270-5fc9f4a87bb9}, !- Handle
  Sales_Case:1_MEATDISPLAYCASE_SingleShelfHorizontal_LatentEnergyMult, !- Name
  0.020376,                               !- Coefficient1 Constant
  0.00024378,                             !- Coefficient2 x
  1.14e-005,                              !- Coefficient3 x**2
  1.811e-007,                             !- Coefficient4 x**3
  -35,                                    !- Minimum Value of x {BasedOnField A2}
  20;                                     !- Maximum Value of x {BasedOnField A2}

OS:Lights:Definition,
  {2c1fac05-6908-4552-a3e7-bddc90ef6388}, !- Handle
  Sales_Lights Definition,                !- Name
  Watts/Area,                             !- Design Level Calculation Method
  ,                                       !- Lighting Level {W}
  18.29,                                  !- Watts per Space Floor Area {W/m2}
  ,                                       !- Watts per Person {W/person}
  0.7,                                    !- Fraction Radiant
  0.2,                                    !- Fraction Visible
  0,                                      !- Return Air Fraction
  No;                                     !- Return Air Fraction Calculated from Plenum Temperature

OS:Lights,
  {3e723110-4d39-403d-9d6c-cf86dccf0acc}, !- Handle
  Sales_Lights,                           !- Name
  {2c1fac05-6908-4552-a3e7-bddc90ef6388}, !- Lights Definition Name
  {fc5941c1-7bf4-4632-b84b-f912480c5719}, !- Space or SpaceType Name
  {9df51d84-a325-4574-9f91-5717bab8cb13}, !- Schedule Name
  1,                                      !- Fraction Replaceable
  ,                                       !- Multiplier
  General;                                !- End-Use Subcategory

OS:Space,
  {fc5941c1-7bf4-4632-b84b-f912480c5719}, !- Handle
  Sales,                                  !- Name
  {5c22d1f3-47b7-4e62-8e5d-688482ad23b7}, !- Space Type Name
  ,                                       !- Default Construction Set Name
  ,                                       !- Default Schedule Set Name
  0,                                      !- Direction of Relative North {deg}
  0,                                      !- X Origin {m}
  0,                                      !- Y Origin {m}
  0,                                      !- Z Origin {m}
  {7be45fde-2c94-4397-89ee-50fde70bba7a}, !- Building Story Name
  {5668e025-62c3-4432-b88b-ac45856b81eb}, !- Thermal Zone Name
  Yes,                                    !- Part of Total Floor Area
  {23b32035-e35b-4315-8cdd-394b03a93b7c}; !- Design Specification Outdoor Air Object Name

OS:Schedule:Compact,
  {9df51d84-a325-4574-9f91-5717bab8cb13}, !- Handle
  BLDG_LIGHT_SCH,                         !- Name
  {4e77f3df-786a-421d-ad61-7dfb2af5f78d}, !- Schedule Type Limits Name
  Through: 12/31,                         !- Field 1
  For: Weekdays,                          !- Field 2
  Until: 06:00,                           !- Field 3
  0.05,                                   !- Field 4
  Until: 08:00,                           !- Field 5
  0.2,                                    !- Field 6
  Until: 09:00,                           !- Field 7
  0.5,                                    !- Field 8
  Until: 18:00,                           !- Field 9
  0.9,                                    !- Field 10
  Until: 20:00,                           !- Field 11
  0.6,                                    !- Field 12
  Until: 21:00,                           !- Field 13
  0.5,                                    !- Field 14
  Until: 22:00,                           !- Field 15
  0.2,                                    !- Field 16
  Until: 24:00,                           !- Field 17
  0.05,                                   !- Field 18
  For: Saturday,                          !- Field 19
  Until: 06:00,                           !- Field 20
  0.05,                                   !- Field 21
  Until: 08:00,                           !- Field 22
  0.1,                                    !- Field 23
  Until: 09:00,                           !- Field 24
  0.3,                                    !- Field 25
  Until: 10:00,                           !- Field 26
  0.6,                                    !- Field 27
  Until: 18:00,                           !- Field 28
  0.9,                                    !- Field 29
  Until: 19:00,                           !- Field 30
  0.5,                                    !- Field 31
  Until: 21:00,                           !- Field 32
  0.3,                                    !- Field 33
  Until: 22:00,                           !- Field 34
  0.1,                                    !- Field 35
  Until: 24:00,                           !- Field 36
  0.05,                                   !- Field 37
  For: SummerDesignDay,                   !- Field 38
  Until: 24:00,                           !- Field 39
  1.0,                                    !- Field 40
  For: WinterDesignDay,                   !- Field 41
  Until: 24:00,                           !- Field 42
  0.0,                                    !- Field 43
  For: Sunday Holidays AllOtherDays,      !- Field 44
  Until: 06:00,                           !- Field 45
  0.05,                                   !- Field 46
  Until: 10:00,                           !- Field 47
  0.1,                                    !- Field 48
  Until: 12:00,                           !- Field 49
  0.4,                                    !- Field 50
  Until: 17:00,                           !- Field 51
  0.6,                                    !- Field 52
  Until: 18:00,                           !- Field 53
  0.4,                                    !- Field 54
  Until: 22:00,                           !- Field 55
  0.2,                                    !- Field 56
  Until: 24:00,                           !- Field 57
  0.05;                                   !- Field 58

OS:Meter,
  {dc956545-39d3-4cd5-8db1-414479366f03}, !- Handle
  Heating:Electricity,                    !- Name
  hourly,                                 !- Reporting Frequency
  False,                                  !- Meter File Only
  False;                                  !- Cumulative

OS:Schedule:Compact,
  {1e3c2911-38ce-4a87-96b0-c45173dd4ca1}, !- Handle
  Sales_Case:2_ MULTIDECKDIARYANDDELICASE_CaseCreditReduxSched, !- Name
  {4e77f3df-786a-421d-ad61-7dfb2af5f78d}, !- Schedule Type Limits Name
  Through: 12/31,                         !- Field 1
  For:AllDays,                            !- Field 2
  Interpolate:No,                         !- Field 3
  Until: 7:00,                            !- Field 4
  0.2,                                    !- Field 5
  Until: 21:00,                           !- Field 6
  0.6,                                    !- Field 7
  Until: 24:00,                           !- Field 8
  0.2;                                    !- Field 9

OS:Meter,
  {eab25da9-f475-481f-8252-f6f2be5a1d9f}, !- Handle
  WaterSystems:Gas,                       !- Name
  hourly,                                 !- Reporting Frequency
  False,                                  !- Meter File Only
  False;                                  !- Cumulative

OS:Curve:Quadratic,
  {e9e54b1f-edf5-4a6a-b12c-ca033beb7fda}, !- Handle