
OS:Version,
  {51ec988e-b3f6-4ea5-9b81-c92fe49c3cae}, !- Handle
  1.8.5;                                  !- Version Identifier

OS:Site,
  {31ac30d1-5f11-4e0a-abf3-69c52834854c}, !- Handle
  USA IL-CHICAGO-OHARE,                   !- Name
  41.77,                                  !- Latitude {deg}
  -87.75,                                 !- Longitude {deg}
  -6,                                     !- Time Zone {hr}
  190,                                    !- Elevation {m}
  City;                                   !- Terrain

OS:SimulationControl,
  {8fa59d7c-6450-4d8d-a426-639ebdb6a885}, !- Handle
  Yes,                                    !- Do Zone Sizing Calculation
  Yes,                                    !- Do System Sizing Calculation
  Yes,                                    !- Do Plant Sizing Calculation
  No,                                     !- Run Simulation for Sizing Periods
  Yes,                                    !- Run Simulation for Weather File Run Periods
  0.04,                                   !- Loads Convergence Tolerance Value
  0.2,                                    !- Temperature Convergence Tolerance Value {deltaC}
  FullInteriorAndExterior,                !- Solar Distribution
  25,                                     !- Maximum Number of Warmup Days
  6;                                      !- Minimum Number of Warmup Days

OS:ShadowCalculation,
  {e5241a2f-74b5-4f3e-ab2a-c86efc235c9a}, !- Handle
  15000,                                  !- Calculation Frequency
  15000;                                  !- Maximum Figures in Shadow Overlap Calculations

OS:Lights:Definition,
  {5f511ab0-a52b-40d3-bcee-0bb8b1e71056}, !- Handle
  DryStorage_Lights Definition,           !- Name
  Watts/Area,                             !- Design Level Calculation Method
  ,                                       !- Lighting Level {W}
  8.61,                                   !- Watts per Space Floor Area {W/m2}
  ,                                       !- Watts per Person {W/person}
  0.7,                                    !- Fraction Radiant
  0.2,                                    !- Fraction Visible
  0,                                      !- Return Air Fraction
  No;                                     !- Return Air Fraction Calculated from Plenum Temperature

OS:Lights,
  {a49b3666-ad35-4511-9531-1903bce7d503}, !- Handle
  DryStorage_Lights,                      !- Name
  {5f511ab0-a52b-40d3-bcee-0bb8b1e71056}, !- Lights Definition Name
  {4e715cba-c49f-465b-802a-c3a3c56107cb}, !- Space or SpaceType Name
  {d5828379-6eee-409b-86b8-a564e2dd8202}, !- Schedule Name
  1,                                      !- Fraction Replaceable
  ,                                       !- Multiplier
  General;                                !- End-Use Subcategory

OS:Space,
  {4e715cba-c49f-465b-802a-c3a3c56107cb}, !- Handle
  DryStorage,                             !- Name
  {112d06d4-2d35-4b52-b795-6317864a0eb8}, !- Space Type Name
  ,                                       !- Default Construction Set Name
  ,                                       !- Default Schedule Set Name
  0,                                      !- Direction of Relative North {deg}
  0,                                      !- X Origin {m}
  0,                                      !- Y Origin {m}
  0,                                      !- Z Origin {m}
  {0d53b6bf-5f3d-48be-bffe-61ffed8b16f1}, !- Building Story Name
  {bd639661-e234-438a-ac80-9b49ccc866d2}, !- Thermal Zone Name
  Yes,                                    !- Part of Total Floor Area
  {1e956898-a819-4c04-916d-013d6b457212}; !- Design Specification Outdoor Air Object Name

OS:Schedule:Compact,
  {7a24da4b-6fe0-4f0b-b616-f45b385ffc36}, !- Handle
  HTGSETP_SCH,                            !- Name
  {36a9be04-4d61-4be0-addf-faeecde29eb7}, !- Schedule Type Limits Name
  Through: 12/31,                         !- Field 1
  For SummerDesignDay,                    !- Field 2
  Until: 24:00,                           !- Field 3
  15.6,                                   !- Field 4
  For: AllOtherDays,                      !- Field 5
  Until:  6:00,                           !- Field 6
  15.6,                                   !- Field 7
  Until: 22:00,                           !- Field 8
  21.,                                    !- Field 9
  Until: 24:00,                           !- Field 10
  15.6;                                   !- Field 11

OS:ScheduleTypeLimits,
  {36a9be04-4d61-4be0-addf-faeecde29eb7}, !- Handle
  Temperature,                            !- Name
  -60,                                    !- Lower Limit Value {BasedOnField A4}
  200,                                    !- Upper Limit Value {BasedOnField A4}
  CONTINUOUS,                             !- Numeric Type
  Temperature;                            !- Unit Type

OS:Schedule:Compact,
  {230583b8-aae2-4c0c-b7b6-9445e65fc4b2}, !- Handle
  CLGSETP_SCH,                            !- Name
  {36a9be04-4d61-4be0-addf-faeecde29eb7}, !- Schedule Type Limits Name
  Through: 12/31,                         !- Field 1
  For WinterDesignDay,                    !- Field 2
  Until: 24:00,                           !- Field 3
  30.0,                                   !- Field 4
  For: AllOtherDays,                      !- Field 5
  Until: 6:00,                            !- Field 6
  30.0,                                   !- Field 7
  Until: 22:00,                           !- Field 8
  24.0,                                   !- Field 9
  Until: 24:00,                           !- Field 10
  30.0;                                   !- Field 11

OS:Schedule:Compact,
  {d5828379-6eee-409b-86b8-a564e2dd8202}, !- Handle
  BLDG_LIGHT_SCH,                         !- Name
  {39a1b99b-77aa-4793-8635-93cea96adf3a}, !- Schedule Type Limits Name
  Through: 12/31,                         !- Field 1
  For: Weekdays,                          !- Field 2
  Until: 06:00,                           !- Field 3
  0.05,                                   !- Field 4
  Until: 08:00,                           !- Field 5
  0.2,                                    !- Field 6
  Until: 09:00,                           !- Field 7
  0.5,                                    !- Field 8
  Until: 18:00,                           !- Field 9
  0.9,                                    !- Field 10
  Until: 20:00,                           !- Field 11
  0.6,                                    !- Field 12
  Until: 21:00,                           !- Field 13
  0.5,                                    !- Field 14
  Until: 22:00,                           !- Field 15
  0.2,                                    !- Field 16
  Until: 24:00,                           !- Field 17
  0.05,                                   !- Field 18
  For: Saturday,                          !- Field 19
  Until: 06:00,                           !- Field 20
  0.05,                                   !- Field 21
  Until: 08:00,                           !- Field 22
  0.1,                                    !- Field 23
  Until: 09:00,                           !- Field 24
  0.3,                                    !- Field 25
  Until: 10:00,                           !- Field 26
  0.6,                                    !- Field 27
  Until: 18:00,                           !- Field 28
  0.9,                                    !- Field 29
  Until: 19:00,                           !- Field 30
  0.5,                                    !- Field 31
  Until: 21:00,                           !- Field 32
  0.3,                                    !- Field 33
  Until: 22:00,                           !- Field 34
  0.1,                                    !- Field 35
  Until: 24:00,                           !- Field 36
  0.05,                                   !- Field 37
  For: SummerDesignDay,                   !- Field 38
  Until: 24:00,                           !- Field 39
  1.0,                                    !- Field 40
  For: WinterDesignDay,                   !- Field 41
  Until: 24:00,                           !- Field 42
  0.0,                                    !- Field 43
  For: Sunday Holidays AllOtherDays,      !- Field 44
  Until: 06:00,                           !- Field 45
  0.05,                                   !- Field 46
  Until: 10:00,                           !- Field 47
  0.1,                                    !- Field 48
  Until: 12:00,                           !- Field 49
  0.4,                                    !- Field 50
  Until: 17:00,                           !- Field 51
  0.6,                                    !- Field 52
  Until: 18:00,                           !- Field 53
  0.4,                                    !- Field 54
  Until: 22:00,                           !- Field 55
  0.2,                                    !- Field 56
  Until: 24:00,                           !- Field 57
  0.05;                                   !- Field 58

OS:ScheduleTypeLimits,
  {39a1b99b-77aa-4793-8635-93cea96adf3a}, !- Handle
  Fraction,                               !- Name
  0,                                      !- Lower Limit Value {BasedOnField A4}
  1,                                      !- Upper Limit Value {BasedOnField A4}
  CONTINUOUS;                             !- Numeric Type

OS:Schedule:Compact,
  {77adb607-bbf5-4f38-80fa-1e815d8c6a30}, !- Handle
  Sales_Case:2_ MULTIDECKDIARYANDDELICASE_CaseDripDown2aDaySched, !- Name
  {172e8d1b-26c4-4a65-ad41-2498f1ede77c}, !- Schedule Type Limits Name
  Through: 12/31,                         !- Field 1
  For:AllDays,                            !- Field 2
  Interpolate:Yes,                        !- Field 3
  Until: 11:00,                           !- Field 4
  0,                                      !- Field 5
  Until: 11:30,                           !- Field 6
  1,                                      !- Field 7
  Until: 23:00,                           !- Field 8
  0,                                      !- Field 9
  Until: 23:30,                           !- Field 10
  1,                                      !- Field 11
  Until: 24:00,                           !- Field 12
  0;                                      !- Field 13

OS:ScheduleTypeLimits,
  {172e8d1b-26c4-4a65-ad41-2498f1ede77c}, !- Handle
  On/Off,                                 !- Name
  0,                                      !- Lower Limit Value {BasedOnField A4}
  1,                                      !- Upper Limit Value {BasedOnField A4}
  DISCRETE,                               !- Numeric Type
  Availability;                           !- Unit Type

OS:Space,
  {10a32b1d-791a-4c0f-948b-c687c97603da}, !- Handle
  Sales,                                  !- Name
  {57bd300f-24d7-475a-8675-d6d087d6ddb4}, !- Space Type Name
  ,                                       !- Default Construction Set Name
  ,                                       !- Default Schedule Set Name
  0,                                      !- Direction of Relative North {deg}
  0,                                      !- X Origin {m}
  0,                                      !- Y Origin {m}
  0,                                      !- Z Origin {m}
  {0d53b6bf-5f3d-48be-bffe-61ffed8b16f1}, !- Building Story Name
  {54d7e4eb-9310-441f-9053-b9725c26de13}, !- Thermal Zone Name
  Yes,                                    !- Part of Total Floor Area
  {5fb7ee40-79a4-4f20-9326-f69bc0162b00}; !- Design Specification Outdoor Air Object Name

OS:DesignSpecification:OutdoorAir,
  {5fb7ee40-79a4-4f20-9326-f69bc0162b00}, !- Handle
  SZ DSOA Sales,                          !- Name
  ,                                       !- Outdoor Air Method
  ,                                       !- Outdoor Air Flow per Person {m3/s-person}
  0.0015,                                 !- Outdoor Air Flow per Floor Area {m3/s-m2}
  ,                                       !- Outdoor Air Flow Rate {m3/s}
  ,                                       !- Outdoor Air Flow Air Changes per Hour {1/hr}
  ;                                       !- Outdoor Air Flow Rate Fraction Schedule Name

OS:Curve:Cubic,
  {4339206d-041e-4e92-845f-539d053b30b4}, !- Handle
  Deli_Case:2_WALKINFREEZERSingleShelfHorizontal_LatentEnergyMult, !- Name
  0.020376,                               !- Coefficient1 Constant
  0.00024378,                             !- Coefficient2 x
  1.14e-005,                              !- Coefficient3 x**2
  1.811e-007,                             !- Coefficient4 x**3
  -35,                                    !- Minimum Value of x {BasedOnField A2}
  20;                                     !- Maximum Value of x {BasedOnField A2}

OS:Construction,
  {f521d20e-4b0d-449b-827c-3e87198d0bd1}, !- Handle
  ext-slab,                               !- Name
  ,                                       !- Surface Rendering Name
  {204d452c-334a-43d0-a8fb-83689a805bea}; !- Layer 1

OS:Material,
  {204d452c-334a-43d0-a8fb-83689a805bea}, !- Handle
  HW CONCRETE,                            !- Name
  Rough,                                  !- Roughness
  0.1016,                                 !- Thickness {m}
  1.311,                                  !- Conductivity {W/m-K}
  2240,                                   !- Density {kg/m3}
  836.8,                                  !- Specific Heat {J/kg-K}
  0.9,                                    !- Thermal Absorptance
  0.7,                                    !- Solar Absorptance
  0.7;                                    !- Visible Absorptance

OS:Schedule:Compact,
  {44a6408a-b533-4049-b787-baf6d09bcd31}, !- Handle
  Deli_Case:2_WALKINFREEZER_CaseCreditReduxSched, !- Name
  {39a1b99b-77aa-4793-8635-93cea96adf3a}, !- Schedule Type Limits Name
  Through: 12/31,                         !- Field 1
  For:AllDays,                            !- Field 2
  Interpolate:No,                         !- Field 3
  Until: 7:00,                            !- Field 4
  0.2,                                    !- Field 5
  Until: 21:00,                           !- Field 6
  0.4,                                    !- Field 7
  Until: 24:00,                           !- Field 8
  0.2;                                    !- Field 9

OS:Schedule:Compact,
  {6af57c06-462f-449e-b094-f35f7635ff15}, !- Handle
  Bakery_Case:1_WALKINFREEZER_CaseCreditReduxSched, !- Name
  {39a1b99b-77aa-4793-8635-93cea96adf3a}, !- Schedule Type Limits Name
  Through: 12/31,                         !- Field 1
  For:AllDays,                            !- Field 2
  Interpolate:No,                         !- Field 3
  Until: 7:00,                            !- Field 4
  0.2,                                    !- Field 5
  Until: 21:00,                           !- Field 6
  0.4,                                    !- Field 7
  Until: 24:00,                           !- Field 8
  0.2;                                    !- Field 9

OS:Space,
  {b45d3bc2-a8c5-421e-959a-47104fdfb920}, !- Handle
  Office,                                 !- Name
  {4f4a14c2-d5a9-4e6d-8fc3-1cd26f5937e0}, !- Space Type Name
  ,                                       !- Default Construction Set Name
  ,                                       !- Default Schedule Set Name
  0,                                      !- Direction of Relative North {deg}
  0,                                      !- X Origin {m}
  0,                                      !- Y Origin {m}
  0,                                      !- Z Origin {m}
  {0d53b6bf-5f3d-48be-bffe-61ffed8b16f1}, !- Building Story Name
  {04f881d7-6f59-4b18-95ab-81ab4333d536}, !- Thermal Zone Name
  Yes,                                    !- Part of Total Floor Area
  {05603d56-027f-4600-9017-009e0e11a5da}; !- Design Specification Outdoor Air Object Name

OS:DesignSpecification:OutdoorAir,
  {05603d56-027f-4600-9017-009e0e11a5da}, !- Handle
  SZ DSOA Office,                         !- Name
  ,                                       !- Outdoor Air Method
  0.01,                                   !- Outdoor Air Flow per Person {m3/s-person}
  ,                                       !- Outdoor Air Flow per Floor Area {m3/s-m2}
  ,                                       !- Outdoor Air Flow Rate {m3/s}
  ,                                       !- Outdoor Air Flow Air Changes per Hour {1/hr}
  ;                                       !- Outdoor Air Flow Rate Fraction Schedule Name

OS:Schedule:Compact,
  {53867809-fea2-4894-afde-13e0fcbac7a3}, !- Handle
  INFIL_HALF_ON_SCH,                      !- Name
  {39a1b99b-77aa-4793-8635-93cea96adf3a}, !- Schedule Type Limits Name
  Through: 12/31,                         !- Field 1
  For: Weekdays SummerDesignDay,          !- Field 2
  Until: 06:00,                           !- Field 3
  1.0,                                    !- Field 4
  Until: 22:00,                           !- Field 5
  0.5,                                    !- Field 6
  Until: 24:00,                           !- Field 7
  1.0,                                    !- Field 8
  For: Saturday,                          !- Field 9
  Until: 06:00,                           !- Field 10
  1.0,                                    !- Field 11
  Until: 22:00,                           !- Field 12
  0.5,                                    !- Field 13
  Until: 24:00,                           !- Field 14
  1.0,                                    !- Field 15
  For: WinterDesignDay,                   !- Field 16
  Until: 24:00,                           !- Field 17
  1.0,                                    !- Field 18
  For: Sunday Holidays AllOtherDays,      !- Field 19
  Until: 08:00,                           !- Field 20
  1.0,                                    !- Field 21
  Until: 17:00,                           !- Field 22
  0.5,                                    !- Field 23
  Until: 24:00,                           !- Field 24
  1.0;                                    !- Field 25

OS:Surface,
  {2ea10a6d-ffb3-4cad-b872-97e6ea86762c}, !- Handle
  Deli_Wall_West-PPAutoCreateOther,       !- Name
  Wall,                                   !- Surface Type
  {7587a0cf-472a-40ff-8b22-073cc2d7a183}, !- Construction Name
  {10a32b1d-791a-4c0f-948b-c687c97603da}, !- Space Name
  Surface,                                !- Outside Boundary Condition
  {45ef5b7b-fe3c-45b1-a98f-ec2c97d2ea40}, !- Outside Boundary Condition Object
  NoSun,                                  !- Sun Exposure
  NoWind,                                 !- Wind Exposure
  ,                                       !- View Factor to Ground
  ,                                       !- Number of Vertices
  26.8875, -9.1251, 6.096,                !- X,Y,Z Vertex 1 {m}
  26.8875, -9.1251, 0,                    !- X,Y,Z Vertex 2 {m}
  26.8875, 13.5765, 0,                    !- X,Y,Z Vertex 3 {m}
  26.8875, 13.5765, 6.096;                !- X,Y,Z Vertex 4 {m}

OS:Construction,
  {7587a0cf-472a-40ff-8b22-073cc2d7a183}, !- Handle
  int-walls,                              !- Name
  ,                                       !- Surface Rendering Name
  {5693a8f4-90be-4551-b40d-f5f8fe89ab69}, !- Layer 1
  {5693a8f4-90be-4551-b40d-f5f8fe89ab69}; !- Layer 2

OS:Material,
  {5693a8f4-90be-4551-b40d-f5f8fe89ab69}, !- Handle
  1/2IN Gypsum,                           !- Name
  Smooth,                                 !- Roughness
  0.0127,                                 !- Thickness {m}
  0.16,                                   !- Conductivity {W/m-K}
  784.9,                                  !- Density {kg/m3}
  830,                                    !- Specific Heat {J/kg-K}
  0.9,                                    !- Thermal Absorptance
  0.92,                                   !- Solar Absorptance
  0.92;                                   !- Visible Absorptance

OS:Surface,
  {45ef5b7b-fe3c-45b1-a98f-ec2c97d2ea40}, !- Handle
  Deli_Wall_West,                         !- Name
  Wall,                                   !- Surface Type
  {7587a0cf-472a-40ff-8b22-073cc2d7a183}, !- Construction Name
  {0bdb30e4-68cf-4696-b946-4945e15dc59f}, !- Space Name
  Surface,                                !- Outside Boundary Condition
  {2ea10a6d-ffb3-4cad-b872-97e6ea86762c}, !- Outside Boundary Condition Object
  NoSun,                                  !- Sun Exposure
  NoWind,                                 !- Wind Exposure
  ,                                       !- View Factor to Ground
  ,                                       !- Number of Vertices
  26.8875, 13.5765, 6.096,                !- X,Y,Z Vertex 1 {m}
  26.8875, 13.5765, 0,                    !- X,Y,Z Vertex 2 {m}
  26.8875, -9.1251, 0,                    !- X,Y,Z Vertex 3 {m}
  26.8875, -9.1251, 6.096;                !- X,Y,Z Vertex 4 {m}

OS:Space,
  {0bdb30e4-68cf-4696-b946-4945e15dc59f}, !- Handle
  Deli,                                   !- Name
  {57bd300f-24d7-475a-8675-d6d087d6ddb4}, !- Space Type Name
  ,                                       !- Default Construction Set Name
  ,                                       !- Default Schedule Set Name
  0,                                      !- Direction of Relative North {deg}
  0,                                      !- X Origin {m}
  0,                                      !- Y Origin {m}
  0,                                      !- Z Origin {m}
  {0d53b6bf-5f3d-48be-bffe-61ffed8b16f1}, !- Building Story Name
  {9d795d75-9a7f-471b-876e-bba6bb085d3e}, !- Thermal Zone Name
  Yes,                                    !- Part of Total Floor Area
  {c2cfcb4e-c0a0-4400-a334-30ac862ccaa5}; !- Design Specification Outdoor Air Object Name

OS:Schedule:Compact,
  {aa31dd6c-fa3c-440a-8560-daa38d985799}, !- Handle
  Sales_Case:7_WALKINFREEZER_CaseDefrost2aDaySched, !- Name
  {172e8d1b-26c4-4a65-ad41-2498f1ede77c}, !- Schedule Type Limits Name
  Through: 12/31,                         !- Field 1
  For:AllDays,                            !- Field 2
  Interpolate:Yes,                        !- Field 3
  Until: 11:00,                           !- Field 4
  0,                                      !- Field 5
  Until: 11:20,                           !- Field 6
  1,                                      !- Field 7
  Until: 23:00,                           !- Field 8
  0,                                      !- Field 9
  Until: 23:20,                           !- Field 10
  1,                                      !- Field 11
  Until: 24:00,                           !- Field 12
  0;                                      !- Field 13

OS:Curve:Cubic,
  {dce109ed-88ca-4800-82e0-c31d27444941}, !- Handle
  Sales_Case:6_WALKINFREEZERSingleShelfHorizontal_LatentEnergyMult, !- Name
  0.020376,                               !- Coefficient1 Constant
  0.00024378,                             !- Coefficient2 x
  1.14e-005,                              !- Coefficient3 x**2
  1.811e-007,                             !- Coefficient4 x**3
  -35,                                    !- Minimum Value of x {BasedOnField A2}
  20;                                     !- Maximum Value of x {BasedOnField A2}

OS:Meter,
  {c4184a0e-7b84-4176-b288-55eeb454c935}, !- Handle
  InteriorLights:Electricity,             !- Name
  hourly,                                 !- Reporting Frequency
  False,                                  !- Meter File Only
  False;                                  !- Cumulative

OS:GasEquipment:Definition,
  {357e1468-2bb6-417e-833c-51ba06a59bcc}, !- Handle
  Deli_MiscGas_Equip Definition,          !- Name
  EquipmentLevel,                         !- Design Level Calculation Method
  6053,                                   !- Design Level {W}
  ,                                       !- Watts per Space Floor Area {W/m2}
  ,                                       !- Watts per Person {W/Person}
  0,                                      !- Fraction Latent
  0.5,                                    !- Fraction Radiant
  0;                                      !- Fraction Lost

OS:GasEquipment,
  {6daf4baa-005d-40f2-b10e-a71c18a8e7e7}, !- Handle
  Deli_MiscGas_Equip,                     !- Name
  {357e1468-2bb6-417e-833c-51ba06a59bcc}, !- Gas Equipment Definition Name
  {0bdb30e4-68cf-4696-b946-4945e15dc59f}, !- Space or SpaceType Name
  {4128bdc4-b7ba-45fd-8f85-c98a09e6a156}, !- Schedule Name
  ,                                       !- Multiplier
  MiscGas;                                !- End-Use Subcategory

OS:Schedule:Compact,
  {4128bdc4-b7ba-45fd-8f85-c98a09e6a156}, !- Handle
  BLDG_EQUIP_SCH,                         !- Name
  {39a1b99b-77aa-4793-8635-93cea96adf3a}, !- Schedule Type Limits Name
  Through: 12/31,                         !- Field 1
  For: Weekdays,                          !- Field 2
  Until: 06:00,                           !- Field 3
  0.2,                                    !- Field 4
  Until: 08:00,                           !- Field 5
  0.4,                                    !- Field 6
  Until: 09:00,                           !- Field 7
  0.7,                                    !- Field 8
  Until: 18:00,                           !- Field 9
  0.9,                                    !- Field 10
  Until: 20:00,                           !- Field 11
  0.8,                                    !- Field 12
  Until: 21:00,                           !- Field 13
  0.7,                                    !- Field 14
  Until: 22:00,                           !- Field 15
  0.4,                                    !- Field 16
  Until: 24:00,                           !- Field 17
  0.2,                                    !- Field 18
  For: Saturday,                          !- Field 19
  Until: 06:00,                           !- Field 20
  0.15,                                   !- Field 21
  Until: 08:00,                           !- Field 22
  0.3,                                    !- Field 23
  Until: 09:00,                           !- Field 24
  0.5,                                    !- Field 25
  Until: 10:00,                           !- Field 26
  0.8,                                    !- Field 27
  Until: 18:00,                           !- Field 28
  0.9,                                    !- Field 29
  Until: 19:00,                           !- Field 30
  0.7,                                    !- Field 31
  Until: 21:00,                           !- Field 32
  0.5,                                    !- Field 33
  Until: 22:00,                           !- Field 34
  0.3,                                    !- Field 35
  Until: 24:00,                           !- Field 36
  0.15,                                   !- Field 37
  For: SummerDesignDay,                   !- Field 38
  Until: 24:00,                           !- Field 39
  1.0,                                    !- Field 40
  For: WinterDesignDay,                   !- Field 41
  Until: 24:00,                           !- Field 42
  0.0,                                    !- Field 43
  For: Sunday Holidays AllOtherDays,      !- Field 44
  Until: 06:00,                           !- Field 45
  0.15,                                   !- Field 46
  Until: 10:00,                           !- Field 47
  0.3,                                    !- Field 48
  Until: 12:00,                           !- Field 49
  0.6,                                    !- Field 50
  Until: 17:00,                           !- Field 51
  0.8,                                    !- Field 52
  Until: 18:00,                           !- Field 53
  0.6,                                    !- Field 54
  Until: 22:00,                           !- Field 55
  0.4,                                    !- Field 56
  Until: 24:00,                           !- Field 57
  0.15;                                   !- Field 58

OS:Surface,
  {449483cb-6276-4be5-9c7b-58cb239b41fd}, !- Handle
  DryStorage_Ceiling,                     !- Name
  RoofCeiling,                            !- Surface Type
  {e9cd6b57-fec8-4ce2-a2f2-f842dd4a1554}, !- Construction Name
  {4e715cba-c49f-465b-802a-c3a3c56107cb}, !- Space Name
  Outdoors,                               !- Outside Boundary Condition
  ,                                       !- Outside Boundary Condition Object
  SunExposed,                             !- Sun Exposure
  WindExposed,                            !- Wind Exposure
  ,                                       !- View Factor to Ground
  ,                                       !- Number of Vertices
  26.8875, 13.5765, 6.096,                !- X,Y,Z Vertex 1 {m}
  26.8875, 22.5515, 6.096,                !- X,Y,Z Vertex 2 {m}
  -42.4038, 22.5515, 6.096,               !- X,Y,Z Vertex 3 {m}
  -42.4038, 13.5765, 6.096;               !- X,Y,Z Vertex 4 {m}

OS:Construction,
  {e9cd6b57-fec8-4ce2-a2f2-f842dd4a1554}, !- Handle
  IEAD Non-res Roof,                      !- Name
  ,                                       !- Surface Rendering Name
  {448eb7a2-5a4d-4c5e-8d1a-5e79d3b72de5}, !- Layer 1
  {e826d47c-0ae2-4a3f-bc4d-e73aa16d7d00}, !- Layer 2
  {30927117-76a0-4ff6-b579-51989148f98c}; !- Layer 3

OS:Material,
  {448eb7a2-5a4d-4c5e-8d1a-5e79d3b72de5}, !- Handle
  Roof Membrane,                          !- Name
  VeryRough,                              !- Roughness
  0.0095,                                 !- Thickness {m}
  0.16,                                   !- Conductivity {W/m-K}
  1121.29,                                !- Density {kg/m3}
  1460,                                   !- Specific Heat {J/kg-K}
  0.9,                                    !- Thermal Absorptance
  0.7,                                    !- Solar Absorptance
  0.7;                                    !- Visible Absorptance

OS:Material,
  {e826d47c-0ae2-4a3f-bc4d-e73aa16d7d00}, !- Handle
  IEAD NonRes Roof Insulation,            !- Name
  MediumRough,                            !- Roughness
  0.127338688569477,                      !- Thickness {m}
  0.049,                                  !- Conductivity {W/m-K}
  265,                                    !- Density {kg/m3}