
OS:Version,
  {8427715a-9890-420a-a1d6-b992e325eb9a}, !- Handle
  1.8.5;                                  !- Version Identifier

OS:Site,
  {c7b34954-39f1-453d-99c0-dc4dd9f0bf08}, !- Handle
  USA IL-CHICAGO-OHARE,                   !- Name
  41.77,                                  !- Latitude {deg}
  -87.75,                                 !- Longitude {deg}
  -6,                                     !- Time Zone {hr}
  190,                                    !- Elevation {m}
  City;                                   !- Terrain

OS:SimulationControl,
  {2cffc2b0-4cdf-4090-8a8b-2c2944728258}, !- Handle
  Yes,                                    !- Do Zone Sizing Calculation
  Yes,                                    !- Do System Sizing Calculation
  Yes,                                    !- Do Plant Sizing Calculation
  No,                                     !- Run Simulation for Sizing Periods
  Yes,                                    !- Run Simulation for Weather File Run Periods
  0.04,                                   !- Loads Convergence Tolerance Value
  0.2,                                    !- Temperature Convergence Tolerance Value {deltaC}
  FullInteriorAndExterior,                !- Solar Distribution
  40,                                     !- Maximum Number of Warmup Days
  6;                                      !- Minimum Number of Warmup Days

OS:SubSurface,
  {e4605ee3-5bce-4576-a3a3-ebbae8a4beef}, !- Handle
  Office_Wall_South Window2,              !- Name
  FixedWindow,                            !- Sub Surface Type
  {c766e8be-7bc3-4323-b197-fb95dd2beeea}, !- Construction Name
  {ddf686e8-9958-4185-8c68-a2b3fa44fb66}, !- Surface Name
  ,                                       !- Outside Boundary Condition Object
  ,                                       !- View Factor to Ground
  ,                                       !- Shading Control Name
  ,                                       !- Frame and Divider Name
  1,                                      !- Multiplier
  ,                                       !- Number of Vertices
  18.5919, 0, 2.4393,                     !- X,Y,Z Vertex 1 {m}
  18.5919, 0, 0.9144,                     !- X,Y,Z Vertex 2 {m}
  22.2493, 0, 0.9144,                     !- X,Y,Z Vertex 3 {m}
  22.2493, 0, 2.4393;                     !- X,Y,Z Vertex 4 {m}

OS:Construction,
  {c766e8be-7bc3-4323-b197-fb95dd2beeea}, !- Handle
  Window Semi-Cond Fixed,                 !- Name
  ,                                       !- Surface Rendering Name
  {d91760ee-4bf4-4d9a-ad42-861ce1431249}; !- Layer 1

OS:WindowMaterial:SimpleGlazingSystem,
  {d91760ee-4bf4-4d9a-ad42-861ce1431249}, !- Handle
  Semi-Cond Fixed Assembly Window,        !- Name
  6.92716,                                !- U-Factor {W/m2-K}
  0.7;                                    !- Solar Heat Gain Coefficient

OS:Surface,
  {ddf686e8-9958-4185-8c68-a2b3fa44fb66}, !- Handle
  Office_Wall_South,                      !- Name
  Wall,                                   !- Surface Type
  {7539863f-eef8-4513-8ca2-a5f995fd0fcb}, !- Construction Name
  {4c034d0c-7f55-4a98-bccc-5cb34a9895a9}, !- Space Name
  Outdoors,                               !- Outside Boundary Condition
  ,                                       !- Outside Boundary Condition Object
  SunExposed,                             !- Sun Exposure
  WindExposed,                            !- Wind Exposure
  ,                                       !- View Factor to Ground
  ,                                       !- Number of Vertices
  0, 0, 4.267,                            !- X,Y,Z Vertex 1 {m}
  0, 0, 0,                                !- X,Y,Z Vertex 2 {m}
  25.9067, 0, 0,                          !- X,Y,Z Vertex 3 {m}
  25.9067, 0, 4.267;                      !- X,Y,Z Vertex 4 {m}

OS:Construction,
  {7539863f-eef8-4513-8ca2-a5f995fd0fcb}, !- Handle
  Metal Bldg Semi-Cond Ext Wall,          !- Name
  ,                                       !- Surface Rendering Name
  {05a30599-3e89-4e42-b952-995eee386e1f}, !- Layer 1
  {73d6bdae-4640-49b7-a027-9ce67af26fc9}, !- Layer 2
  {9ce5e861-fa73-4724-8e38-412a9d279e89}; !- Layer 3

OS:Material,
  {05a30599-3e89-4e42-b952-995eee386e1f}, !- Handle
  Metal Siding,                           !- Name
  Smooth,                                 !- Roughness
  0.0015,                                 !- Thickness {m}
  44.96,                                  !- Conductivity {W/m-K}
  7688.86,                                !- Density {kg/m3}
  410,                                    !- Specific Heat {J/kg-K}
  0.9,                                    !- Thermal Absorptance
  0.2,                                    !- Solar Absorptance
  0.2;                                    !- Visible Absorptance

OS:Material,
  {73d6bdae-4640-49b7-a027-9ce67af26fc9}, !- Handle
  Metal Building Semi-Cond Wall Insulation, !- Name
  MediumRough,                            !- Roughness
  0.0495494599433393,                     !- Thickness {m}
  0.049,                                  !- Conductivity {W/m-K}
  265,                                    !- Density {kg/m3}
  836.8,                                  !- Specific Heat {J/kg-K}
  0.9,                                    !- Thermal Absorptance
  0.7,                                    !- Solar Absorptance
  0.7;                                    !- Visible Absorptance

OS:Material,
  {9ce5e861-fa73-4724-8e38-412a9d279e89}, !- Handle
  1/2IN Gypsum,                           !- Name
  Smooth,                                 !- Roughness
  0.0127,                                 !- Thickness {m}
  0.16,                                   !- Conductivity {W/m-K}
  784.9,                                  !- Density {kg/m3}
  830,                                    !- Specific Heat {J/kg-K}
  0.9,                                    !- Thermal Absorptance
  0.92,                                   !- Solar Absorptance
  0.92;                                   !- Visible Absorptance

OS:Space,
  {4c034d0c-7f55-4a98-bccc-5cb34a9895a9}, !- Handle
  Office,                                 !- Name
  {010c99cb-1775-4304-95e7-1cbac879acf9}, !- Space Type Name
  ,                                       !- Default Construction Set Name
  ,                                       !- Default Schedule Set Name
  0,                                      !- Direction of Relative North {deg}
  0,                                      !- X Origin {m}
  0,                                      !- Y Origin {m}
  0,                                      !- Z Origin {m}
  {21aec09e-b344-4ff2-bf4f-b3a6cbe9590f}, !- Building Story Name
  {c628dbb8-54a1-4e0b-aebb-56fbe972ceab}, !- Thermal Zone Name
  Yes,                                    !- Part of Total Floor Area
  {0a2bad4c-1aa2-410c-82c3-293ee203b46a}; !- Design Specification Outdoor Air Object Name

OS:Schedule:Compact,
  {c4dcc513-1dad-46aa-a785-29a53cbe9e90}, !- Handle
  HTGSETP_SCH,                            !- Name
  {f878dde8-685b-4ee1-9edd-e4c8c48af658}, !- Schedule Type Limits Name
  Through: 12/31,                         !- Field 1
  For: Weekdays,                          !- Field 2
  Until: 06:00,                           !- Field 3
  15.5,                                   !- Field 4
  Until: 17:00,                           !- Field 5
  21.0,                                   !- Field 6
  Until: 24:00,                           !- Field 7
  15.5,                                   !- Field 8
  For WinterDesignDay,                    !- Field 9
  Until: 24:00,                           !- Field 10
  21.0,                                   !- Field 11
  For: Saturday,                          !- Field 12
  Until: 07:00,                           !- Field 13
  15.5,                                   !- Field 14
  Until: 16:00,                           !- Field 15
  21.0,                                   !- Field 16
  Until: 24:00,                           !- Field 17
  15.5,                                   !- Field 18
  For: AllOtherDays,                      !- Field 19
  Until: 24:00,                           !- Field 20
  15.5;                                   !- Field 21

OS:ScheduleTypeLimits,
  {f878dde8-685b-4ee1-9edd-e4c8c48af658}, !- Handle
  Temperature,                            !- Name
  -60,                                    !- Lower Limit Value {BasedOnField A4}
  200,                                    !- Upper Limit Value {BasedOnField A4}
  CONTINUOUS,                             !- Numeric Type
  Temperature;                            !- Unit Type

OS:Schedule:Compact,
  {ac9f53ee-53de-4969-aa76-df18845571bd}, !- Handle
  CLGSETP_SCH,                            !- Name
  {f878dde8-685b-4ee1-9edd-e4c8c48af658}, !- Schedule Type Limits Name
  Through: 12/31,                         !- Field 1
  For: Weekdays SummerDesignDay,          !- Field 2
  Until: 07:00,                           !- Field 3
  30.0,                                   !- Field 4
  Until: 17:00,                           !- Field 5
  24.0,                                   !- Field 6
  Until: 24:00,                           !- Field 7
  30.0,                                   !- Field 8
  For: Saturday,                          !- Field 9
  Until: 08:00,                           !- Field 10
  30.0,                                   !- Field 11
  Until: 16:00,                           !- Field 12
  24.0,                                   !- Field 13
  Until: 24:00,                           !- Field 14
  30.0,                                   !- Field 15
  For: AllOtherDays,                      !- Field 16
  Until: 24:00,                           !- Field 17
  30.0;                                   !- Field 18

OS:SubSurface,
  {5440ea9c-d9fb-4a85-a98a-26a1367310e4}, !- Handle
  BulkStorage_Wall_West_OHDoor_3,         !- Name
  Door,                                   !- Sub Surface Type
  {356f7454-e043-4fc4-82ef-d6f69404dfa3}, !- Construction Name
  {d5f180d4-9a1a-46f5-b19d-a08b7748f8ea}, !- Surface Name
  ,                                       !- Outside Boundary Condition Object
  ,                                       !- View Factor to Ground
  ,                                       !- Shading Control Name
  ,                                       !- Frame and Divider Name
  1,                                      !- Multiplier
  ,                                       !- Number of Vertices
  0, 75.8153, 3.0478,                     !- X,Y,Z Vertex 1 {m}
  0, 75.8153, 0,                          !- X,Y,Z Vertex 2 {m}
  0, 73.377, 0,                           !- X,Y,Z Vertex 3 {m}
  0, 73.377, 3.0478;                      !- X,Y,Z Vertex 4 {m}

OS:Construction,
  {356f7454-e043-4fc4-82ef-d6f69404dfa3}, !- Handle
  Overhead Door Semi-Cond,                !- Name
  ,                                       !- Surface Rendering Name
  {6182a481-7ef6-4cc7-90fb-8264192dd7d6}; !- Layer 1

OS:Material:NoMass,
  {6182a481-7ef6-4cc7-90fb-8264192dd7d6}, !- Handle
  Std Overhead Door Panel Semi-Cond,      !- Name
  MediumRough,                            !- Roughness
  0.001,                                  !- Thermal Resistance {m2-K/W}
  0.9,                                    !- Thermal Absorptance
  0.7,                                    !- Solar Absorptance
  0.7;                                    !- Visible Absorptance

OS:Surface,
  {d5f180d4-9a1a-46f5-b19d-a08b7748f8ea}, !- Handle
  BulkStorage_Wall_West,                  !- Name
  Wall,                                   !- Surface Type
  {7539863f-eef8-4513-8ca2-a5f995fd0fcb}, !- Construction Name
  {e385f7aa-c874-47ba-bbee-61f4821ab010}, !- Space Name
  Outdoors,                               !- Outside Boundary Condition
  ,                                       !- Outside Boundary Condition Object
  SunExposed,                             !- Sun Exposure
  WindExposed,                            !- Wind Exposure
  ,                                       !- View Factor to Ground
  ,                                       !- Number of Vertices
  0, 100.579, 8.534,                      !- X,Y,Z Vertex 1 {m}
  0, 100.579, 0,                          !- X,Y,Z Vertex 2 {m}
  0, 30.4785, 0,                          !- X,Y,Z Vertex 3 {m}
  0, 30.4785, 8.534;                      !- X,Y,Z Vertex 4 {m}

OS:Space,
  {e385f7aa-c874-47ba-bbee-61f4821ab010}, !- Handle
  BulkStorage,                            !- Name
  {a1880121-fe52-43b7-8bec-368b11742392}, !- Space Type Name
  ,                                       !- Default Construction Set Name
  ,                                       !- Default Schedule Set Name
  0,                                      !- Direction of Relative North {deg}
  0,                                      !- X Origin {m}
  0,                                      !- Y Origin {m}
  0,                                      !- Z Origin {m}
  {21aec09e-b344-4ff2-bf4f-b3a6cbe9590f}, !- Building Story Name
  {699aa7e6-ceef-4c5b-94b4-927b32bfed60}, !- Thermal Zone Name
  Yes,                                    !- Part of Total Floor Area
  {c26cfdf5-57d2-43af-bb05-38845f52baee}; !- Design Specification Outdoor Air Object Name

OS:Schedule:Compact,
  {9afc34e5-36d5-4e31-86c4-ce2c2cd5a2cf}, !- Handle
  HTGSETP_BulkStorage_SCH,                !- Name
  {f878dde8-685b-4ee1-9edd-e4c8c48af658}, !- Schedule Type Limits Name
  Through: 12/31,                         !- Field 1
  For: AllDays,                           !- Field 2
  Until: 24:00,                           !- Field 3
  7.2;                                    !- Field 4

OS:SubSurface,
  {3b6e5277-789f-4a69-b07a-0ca953f69900}, !- Handle
  BulkStorage_Wall_West_OHDoor_5,         !- Name
  Door,                                   !- Sub Surface Type
  {356f7454-e043-4fc4-82ef-d6f69404dfa3}, !- Construction Name
  {d5f180d4-9a1a-46f5-b19d-a08b7748f8ea}, !- Surface Name
  ,                                       !- Outside Boundary Condition Object
  ,                                       !- View Factor to Ground
  ,                                       !- Shading Control Name
  ,                                       !- Frame and Divider Name
  1,                                      !- Multiplier
  ,                                       !- Number of Vertices
  0, 57.6806, 3.0478,                     !- X,Y,Z Vertex 1 {m}
  0, 57.6806, 0,                          !- X,Y,Z Vertex 2 {m}
  0, 55.2423, 0,                          !- X,Y,Z Vertex 3 {m}
  0, 55.2423, 3.0478;                     !- X,Y,Z Vertex 4 {m}

OS:Material,
  {8bf951de-a3e0-442c-94dc-149415d338dd}, !- Handle
  MAT-CC05 4 HW CONCRETE,                 !- Name
  Rough,                                  !- Roughness
  0.1016,                                 !- Thickness {m}
  1.311,                                  !- Conductivity {W/m-K}
  2240,                                   !- Density {kg/m3}
  836.8,                                  !- Specific Heat {J/kg-K}
  0.9,                                    !- Thermal Absorptance
  0.7,                                    !- Solar Absorptance
  0.7;                                    !- Visible Absorptance

OS:Lights:Definition,
  {dc7177a8-2803-4adc-b48c-3c73be98bac0}, !- Handle
  BulkStorage_Lights Definition,          !- Name
  Watts/Area,                             !- Design Level Calculation Method
  ,                                       !- Lighting Level {W}
  9.68,                                   !- Watts per Space Floor Area {W/m2}
  ,                                       !- Watts per Person {W/person}
  0.5,                                    !- Fraction Radiant
  0.2,                                    !- Fraction Visible
  0,                                      !- Return Air Fraction
  No;                                     !- Return Air Fraction Calculated from Plenum Temperature

OS:Lights,
  {1d7c0c97-3361-4f41-8399-852216939ea9}, !- Handle
  BulkStorage_Lights,                     !- Name
  {dc7177a8-2803-4adc-b48c-3c73be98bac0}, !- Lights Definition Name
  {e385f7aa-c874-47ba-bbee-61f4821ab010}, !- Space or SpaceType Name
  {88ceb7fc-9842-47ed-b635-336fb1b37ad5}, !- Schedule Name
  1,                                      !- Fraction Replaceable
  ,                                       !- Multiplier
  General;                                !- End-Use Subcategory

OS:Schedule:Compact,
  {88ceb7fc-9842-47ed-b635-336fb1b37ad5}, !- Handle
  BLDG_LIGHT_SCH,                         !- Name
  {9903f60b-0cff-4734-b1a0-dd9384822eef}, !- Schedule Type Limits Name
  Through: 12/31,                         !- Field 1
  For: Weekdays,                          !- Field 2
  Until: 07:00,                           !- Field 3
  0.1,                                    !- Field 4
  Until: 08:00,                           !- Field 5
  0.4,                                    !- Field 6
  Until: 09:00,                           !- Field 7
  0.7,                                    !- Field 8
  Until: 12:00,                           !- Field 9
  0.9,                                    !- Field 10
  Until: 13:00,                           !- Field 11
  0.8,                                    !- Field 12
  Until: 17:00,                           !- Field 13
  0.9,                                    !- Field 14
  Until: 18:00,                           !- Field 15
  0.3,                                    !- Field 16
  Until: 24:00,                           !- Field 17
  0.1,                                    !- Field 18
  For: Saturday,                          !- Field 19
  Until: 08:00,                           !- Field 20
  0.1,                                    !- Field 21
  Until: 09:00,                           !- Field 22
  0.1,                                    !- Field 23
  Until: 12:00,                           !- Field 24
  0.24,                                   !- Field 25
  Until: 24:00,                           !- Field 26
  0.1,                                    !- Field 27
  For: SummerDesignDay,                   !- Field 28
  Until: 24:00,                           !- Field 29
  1.0,                                    !- Field 30
  For: WinterDesignDay,                   !- Field 31
  Until: 24:00,                           !- Field 32
  0.0,                                    !- Field 33
  For: Sunday Holidays AllOtherDays,      !- Field 34
  Until: 24:00,                           !- Field 35
  0.1;                                    !- Field 36

OS:ScheduleTypeLimits,
  {9903f60b-0cff-4734-b1a0-dd9384822eef}, !- Handle
  Fraction,                               !- Name
  0,                                      !- Lower Limit Value {BasedOnField A4}
  1,                                      !- Upper Limit Value {BasedOnField A4}
  CONTINUOUS;                             !- Numeric Type

OS:Surface,
  {c07e731c-a699-4521-8edf-d48c72cc8d7a}, !- Handle
  BulkStorage_Wall_East,                  !- Name
  Wall,                                   !- Surface Type
  {7539863f-eef8-4513-8ca2-a5f995fd0fcb}, !- Construction Name
  {e385f7aa-c874-47ba-bbee-61f4821ab010}, !- Space Name
  Outdoors,                               !- Outside Boundary Condition
  ,                                       !- Outside Boundary Condition Object
  SunExposed,                             !- Sun Exposure
  WindExposed,                            !- Wind Exposure
  ,                                       !- View Factor to Ground
  ,                                       !- Number of Vertices
  45.7178, 30.4785, 8.534,                !- X,Y,Z Vertex 1 {m}
  45.7178, 30.4785, 0,                    !- X,Y,Z Vertex 2 {m}
  45.7178, 100.579, 0,                    !- X,Y,Z Vertex 3 {m}
  45.7178, 100.579, 8.534;                !- X,Y,Z Vertex 4 {m}

OS:Surface,
  {32fc8b3f-852b-4793-b541-39cc7775db26}, !- Handle
  Office_Wall_West,                       !- Name
  Wall,                                   !- Surface Type
  {7539863f-eef8-4513-8ca2-a5f995fd0fcb}, !- Construction Name
  {4c034d0c-7f55-4a98-bccc-5cb34a9895a9}, !- Space Name
  Outdoors,                               !- Outside Boundary Condition
  ,                                       !- Outside Boundary Condition Object
  SunExposed,                             !- Sun Exposure
  WindExposed,                            !- Wind Exposure
  ,                                       !- View Factor to Ground
  ,                                       !- Number of Vertices
  0, 9.1435, 4.267,                       !- X,Y,Z Vertex 1 {m}
  0, 9.1435, 0,                           !- X,Y,Z Vertex 2 {m}
  0, 0, 0,                                !- X,Y,Z Vertex 3 {m}
  0, 0, 4.267;                            !- X,Y,Z Vertex 4 {m}

OS:Meter,
  {4a4436e2-d747-473b-abc6-eeca0b18637d}, !- Handle
  Gas:Facility,                           !- Name
  hourly,                                 !- Reporting Frequency
  False,                                  !- Meter File Only
  False;                                  !- Cumulative

OS:SubSurface,
  {541211c1-d466-4449-bc11-df8be477f056}, !- Handle
  BulkStorage_Wall_West_OHDoor_1,         !- Name
  Door,                                   !- Sub Surface Type
  {356f7454-e043-4fc4-82ef-d6f69404dfa3}, !- Construction Name
  {d5f180d4-9a1a-46f5-b19d-a08b7748f8ea}, !- Surface Name
  ,                                       !- Outside Boundary Condition Object
  ,                                       !- View Factor to Ground
  ,                                       !- Shading Control Name
  ,                                       !- Frame and Divider Name
  1,                                      !- Multiplier
  ,                                       !- Number of Vertices
  0, 93.95, 3.0478,                       !- X,Y,Z Vertex 1 {m}
  0, 93.95, 0,                            !- X,Y,Z Vertex 2 {m}
  0, 91.5117, 0,                          !- X,Y,Z Vertex 3 {m}
  0, 91.5117, 3.0478;                     !- X,Y,Z Vertex 4 {m}

OS:Surface,
  {765e7947-6472-4402-9252-8839bc8d2e69}, !- Handle
  FineStorage_Floor,                      !- Name
  Floor,                                  !- Surface Type
  {ca8e19d2-3560-4d4a-a686-ef508ea58302}, !- Construction Name
  {29d529a8-7062-4d95-877d-9b5b67713f02}, !- Space Name
  Ground,                                 !- Outside Boundary Condition
  ,                                       !- Outside Boundary Condition Object
  NoSun,                                  !- Sun Exposure
  NoWind,                                 !- Wind Exposure
  ,                                       !- View Factor to Ground
  ,                                       !- Number of Vertices
  45.7178, 30.4785, 0,                    !- X,Y,Z Vertex 1 {m}
  45.7178, 0, 0,                          !- X,Y,Z Vertex 2 {m}
  25.9067, 0, 0,                          !- X,Y,Z Vertex 3 {m}
  25.9067, 9.1435, 0,                     !- X,Y,Z Vertex 4 {m}
  0, 9.1435, 0,                           !- X,Y,Z Vertex 5 {m}
  0, 30.4785, 0;                          !- X,Y,Z Vertex 6 {m}

OS:Construction,
  {ca8e19d2-3560-4d4a-a686-ef508ea58302}, !- Handle
  ext-slab,                               !- Name
  ,                                       !- Surface Rendering Name
  {c2bcb25c-f24a-45bb-ba50-abaa171b22c0}; !- Layer 1

OS:Material,
  {c2bcb25c-f24a-45bb-ba50-abaa171b22c0}, !- Handle
  HW CONCRETE,                            !- Name
  Rough,                                  !- Roughness
  0.2032,                                 !- Thickness {m}
  1.311,                                  !- Conductivity {W/m-K}
  2240,                                   !- Density {kg/m3}
  836.8,                                  !- Specific Heat {J/kg-K}
  0.9,                                    !- Thermal Absorptance
  0.7,                                    !- Solar Absorptance
  0.7;                                    !- Visible Absorptance

OS:Space,
  {29d529a8-7062-4d95-877d-9b5b67713f02}, !- Handle
  FineStorage,                            !- Name
  {301fe154-d25e-46de-b5a7-c6d99596a939}, !- Space Type Name
  ,                                       !- Default Construction Set Name
  ,                                       !- Default Schedule Set Name
  0,                                      !- Direction of Relative North {deg}
  0,                                      !- X Origin {m}
  0,                                      !- Y Origin {m}
  0,                                      !- Z Origin {m}
  {21aec09e-b344-4ff2-bf4f-b3a6cbe9590f}, !- Building Story Name
  {c628dbb8-54a1-4e0b-aebb-56fbe972ceab}, !- Thermal Zone Name
  Yes,                                    !- Part of Total Floor Area
  {3492596f-9a80-4176-b1cb-b16586443563}; !- Design Specification Outdoor Air Object Name

OS:Schedule:Compact,
  {825f5ecf-0ef5-4694-94cc-1cb8ad85391a}, !- Handle
  HTGSETP_FineStorage_SCH,                !- Name
  {f878dde8-685b-4ee1-9edd-e4c8c48af658}, !- Schedule Type Limits Name
  Through: 12/31,                         !- Field 1
  For: AllDays,                           !- Field 2
  Until: 24:00,                           !- Field 3
  15.6;                                   !- Field 4

OS:Schedule:Compact,
  {dd39cdec-1479-41a0-8e7a-8ba95e4c7ed9}, !- Handle
  CLGSETP_FineStorage_SCH,                !- Name
  {f878dde8-685b-4ee1-9edd-e4c8c48af658}, !- Schedule Type Limits Name
  Through: 12/31,                         !- Field 1
  For: AllDays,                           !- Field 2
  Until: 24:00,                           !- Field 3
  26.7;                                   !- Field 4

OS:Curve:Biquadratic,
  {c5896df4-d815-411f-9315-173022649b6f}, !- Handle
  Measured_LowSpeedCoolCapLSFT,           !- Name
  0.4136,                                 !- Coefficient1 Constant
  0.03105,                                !- Coefficient2 x
  0,                                      !- Coefficient3 x**2
  0.006952,                               !- Coefficient4 y
  -0.0002128,                             !- Coefficient5 y**2
  0,                                      !- Coefficient6 x*y
  11.1,                                   !- Minimum Value of x {BasedOnField A2}
  29.4,                                   !- Maximum Value of x {BasedOnField A2}
  10,                                     !- Minimum Value of y {BasedOnField A3}
  50.3;                                   !- Maximum Value of y {BasedOnField A3}

OS:Meter,
  {56cc97d1-0b51-4a8b-a264-817e2f5b8cf5}, !- Handle
  Pumps:Electricity,                      !- Name
  hourly,                                 !- Reporting Frequency
  False,                                  !- Meter File Only
  False;                                  !- Cumulative

OS:SpaceInfiltration:DesignFlowRate,
  {5edf47c0-0360-4562-af8a-6ef4a2f65ba2}, !- Handle
  FineStorage_Infiltration,               !- Name
  {29d529a8-7062-4d95-877d-9b5b67713f02}, !- Space or SpaceType Name
  {0d5de2b7-3481-4460-893b-382a78342cf6}, !- Schedule Name
  Flow/ExteriorArea,                      !- Design Flow Rate Calculation Method
  ,                                       !- Design Flow Rate {m3/s}
  ,                                       !- Flow per Space Floor Area {m3/s-m2}
  0.000302,                               !- Flow per Exterior Surface Area {m3/s-m2}
  ,                                       !- Air Changes per Hour {1/hr}
  1,                                      !- Constant Term Coefficient
  0,                                      !- Temperature Term Coefficient
  0,                                      !- Velocity Term Coefficient
  0;                                      !- Velocity Squared Term Coefficient

OS:Schedule:Compact,
  {0d5de2b7-3481-4460-893b-382a78342cf6}, !- Handle
  ALWAYS_ON,                              !- Name
  {9f40a6fb-f5bb-49ac-86d7-e96480f61e0c}, !- Schedule Type Limits Name
  Through: 12/31,                         !- Field 1
  For: AllDays,                           !- Field 2
  Until: 24:00,                           !- Field 3
  1;                                      !- Field 4

OS:ScheduleTypeLimits,
  {9f40a6fb-f5bb-49ac-86d7-e96480f61e0c}, !- Handle
  On/Off,                                 !- Name
  0,                                      !- Lower Limit Value {BasedOnField A4}
  1,                                      !- Upper Limit Value {BasedOnField A4}
  DISCRETE,                               !- Numeric Type
  Availability;                           !- Unit Type

OS:SubSurface,
  {6ed0edc2-92ef-4abe-987d-f40ba504f22c}, !- Handle
  BulkStorage_Wall_East_Door_3,           !- Name
  Door,                                   !- Sub Surface Type
  {32a8aad9-5d65-4b63-a06a-ae580468839a}, !- Construction Name
  {c07e731c-a699-4521-8edf-d48c72cc8d7a}, !- Surface Name
  ,                                       !- Outside Boundary Condition Object
  ,                                       !- View Factor to Ground
  ,                                       !- Shading Control Name
  ,                                       !- Frame and Divider Name
  1,                                      !- Multiplier
  ,                                       !- Number of Vertices
  45.718, 82.5968, 2.1335,                !- X,Y,Z Vertex 1 {m}
  45.718, 82.5968, 0,                     !- X,Y,Z Vertex 2 {m}
  45.718, 83.5111, 0,                     !- X,Y,Z Vertex 3 {m}
  45.718, 83.5111, 2.1335;                !- X,Y,Z Vertex 4 {m}

OS:Construction,
  {32a8aad9-5d65-4b63-a06a-ae580468839a}, !- Handle
  Swinging Door Semi-Cond,                !- Name
  ,                                       !- Surface Rendering Name
  {35cae4b3-34b7-4345-926d-25ddc50d9452}; !- Layer 1

OS:Material:NoMass,
  {35cae4b3-34b7-4345-926d-25ddc50d9452}, !- Handle
  Opaque Door panel Semi-Cond,            !- Name
  MediumRough,                            !- Roughness
  0.101897046243647,                      !- Thermal Resistance {m2-K/W}