
OS:Version,
  {4b81ccbe-acdf-427e-bcf3-db17e96cb93a}, !- Handle
  1.8.5;                                  !- Version Identifier

OS:Site,
  {52624e73-c2c7-4139-adcc-316ee750d7e6}, !- Handle
  USA IL-CHICAGO-OHARE,                   !- Name
  41.77,                                  !- Latitude {deg}
  -87.75,                                 !- Longitude {deg}
  -6,                                     !- Time Zone {hr}
  190,                                    !- Elevation {m}
  City;                                   !- Terrain

OS:SimulationControl,
  {c4721ef8-0947-45b9-9216-1cbdd7e84613}, !- Handle
  Yes,                                    !- Do Zone Sizing Calculation
  Yes,                                    !- Do System Sizing Calculation
  Yes,                                    !- Do Plant Sizing Calculation
  No,                                     !- Run Simulation for Sizing Periods
  Yes,                                    !- Run Simulation for Weather File Run Periods
  0.04,                                   !- Loads Convergence Tolerance Value
  0.2,                                    !- Temperature Convergence Tolerance Value {deltaC}
  FullInteriorAndExterior,                !- Solar Distribution
  40,                                     !- Maximum Number of Warmup Days
  6;                                      !- Minimum Number of Warmup Days

OS:Meter,
  {bb577ef2-63e5-49aa-b2d9-6b88be0dc804}, !- Handle
  InteriorEquipment:Gas,                  !- Name
  hourly,                                 !- Reporting Frequency
  False,                                  !- Meter File Only
  False;                                  !- Cumulative

OS:Space,
  {cbfa4925-cc52-4f89-8780-d0579c833d32}, !- Handle
  Office,                                 !- Name
  {7b0cf67b-f496-4411-a7b5-cf02fc29affe}, !- Space Type Name
  ,                                       !- Default Construction Set Name
  ,                                       !- Default Schedule Set Name
  0,                                      !- Direction of Relative North {deg}
  0,                                      !- X Origin {m}
  0,                                      !- Y Origin {m}
  0,                                      !- Z Origin {m}
  {d82e6315-cd98-4a06-afbe-37b860c390fe}, !- Building Story Name
  {5efde556-9853-419b-bcab-165435a34275}, !- Thermal Zone Name
  Yes,                                    !- Part of Total Floor Area
  {bc75b310-4f45-4f1d-8334-38449d02f906}; !- Design Specification Outdoor Air Object Name

OS:Schedule:Compact,
  {5a8f9438-cb70-45e2-b19a-7e41af407aec}, !- Handle
  HTGSETP_SCH,                            !- Name
  {faef3332-392f-4f59-88bf-0c1ec09662f4}, !- Schedule Type Limits Name
  Through: 12/31,                         !- Field 1
  For: Weekdays,                          !- Field 2
  Until: 06:00,                           !- Field 3
  15.5,                                   !- Field 4
  Until: 17:00,                           !- Field 5
  21.0,                                   !- Field 6
  Until: 24:00,                           !- Field 7
  15.5,                                   !- Field 8
  For WinterDesignDay,                    !- Field 9
  Until: 24:00,                           !- Field 10
  21.0,                                   !- Field 11
  For: Saturday,                          !- Field 12
  Until: 07:00,                           !- Field 13
  15.5,                                   !- Field 14
  Until: 16:00,                           !- Field 15
  21.0,                                   !- Field 16
  Until: 24:00,                           !- Field 17
  15.5,                                   !- Field 18
  For: AllOtherDays,                      !- Field 19
  Until: 24:00,                           !- Field 20
  15.5;                                   !- Field 21

OS:ScheduleTypeLimits,
  {faef3332-392f-4f59-88bf-0c1ec09662f4}, !- Handle
  Temperature,                            !- Name
  -60,                                    !- Lower Limit Value {BasedOnField A4}
  200,                                    !- Upper Limit Value {BasedOnField A4}
  CONTINUOUS,                             !- Numeric Type
  Temperature;                            !- Unit Type

OS:Schedule:Compact,
  {b6a94e00-0dde-4f7e-bc35-1fd2a7a30be8}, !- Handle
  CLGSETP_SCH,                            !- Name
  {faef3332-392f-4f59-88bf-0c1ec09662f4}, !- Schedule Type Limits Name
  Through: 12/31,                         !- Field 1
  For: Weekdays SummerDesignDay,          !- Field 2
  Until: 07:00,                           !- Field 3
  30.0,                                   !- Field 4
  Until: 17:00,                           !- Field 5
  24.0,                                   !- Field 6
  Until: 24:00,                           !- Field 7
  30.0,                                   !- Field 8
  For: Saturday,                          !- Field 9
  Until: 08:00,                           !- Field 10
  30.0,                                   !- Field 11
  Until: 16:00,                           !- Field 12
  24.0,                                   !- Field 13
  Until: 24:00,                           !- Field 14
  30.0,                                   !- Field 15
  For: AllOtherDays,                      !- Field 16
  Until: 24:00,                           !- Field 17
  30.0;                                   !- Field 18

OS:DesignSpecification:OutdoorAir,
  {bc75b310-4f45-4f1d-8334-38449d02f906}, !- Handle
  SZ DSOA Office,                         !- Name
  ,                                       !- Outdoor Air Method
  0.01,                                   !- Outdoor Air Flow per Person {m3/s-person}
  ,                                       !- Outdoor Air Flow per Floor Area {m3/s-m2}
  ,                                       !- Outdoor Air Flow Rate {m3/s}
  ,                                       !- Outdoor Air Flow Air Changes per Hour {1/hr}
  ;                                       !- Outdoor Air Flow Rate Fraction Schedule Name

OS:Material,
  {474eea29-a2f2-4b1d-b48a-484006bab638}, !- Handle
  Roof Membrane,                          !- Name
  VeryRough,                              !- Roughness
  0.0095,                                 !- Thickness {m}
  0.16,                                   !- Conductivity {W/m-K}
  1121.29,                                !- Density {kg/m3}
  1460,                                   !- Specific Heat {J/kg-K}
  0.9,                                    !- Thermal Absorptance
  0.7,                                    !- Solar Absorptance
  0.7;                                    !- Visible Absorptance

OS:Surface,
  {057b7e60-d954-4020-83d1-ef3fa806b814}, !- Handle
  Fine Storage Office_Wall_South,         !- Name
  Wall,                                   !- Surface Type
  {98b868d7-1f30-405b-9a41-ee364464b1db}, !- Construction Name
  {c93c351e-902f-4f22-97b3-45894d48f6b9}, !- Space Name
  Outdoors,                               !- Outside Boundary Condition
  ,                                       !- Outside Boundary Condition Object
  SunExposed,                             !- Sun Exposure
  WindExposed,                            !- Wind Exposure
  ,                                       !- View Factor to Ground
  ,                                       !- Number of Vertices
  0, 0, 8.534,                            !- X,Y,Z Vertex 1 {m}
  0, 0, 4.267,                            !- X,Y,Z Vertex 2 {m}
  25.9067, 0, 4.267,                      !- X,Y,Z Vertex 3 {m}
  25.9067, 0, 8.534;                      !- X,Y,Z Vertex 4 {m}

OS:Construction,
  {98b868d7-1f30-405b-9a41-ee364464b1db}, !- Handle
  Metal Bldg Semi-Cond Ext Wall,          !- Name
  ,                                       !- Surface Rendering Name
  {558d2bb3-a0ec-4a85-b513-0273bce37ce5}, !- Layer 1
  {56140275-0ae8-4d7f-9df5-9dc5591c71b3}, !- Layer 2
  {e1b14837-a903-46d9-88fe-9b0b8a0ed02e}; !- Layer 3

OS:Material,
  {558d2bb3-a0ec-4a85-b513-0273bce37ce5}, !- Handle
  Metal Siding,                           !- Name
  Smooth,                                 !- Roughness
  0.0015,                                 !- Thickness {m}
  44.96,                                  !- Conductivity {W/m-K}
  7688.86,                                !- Density {kg/m3}
  410,                                    !- Specific Heat {J/kg-K}
  0.9,                                    !- Thermal Absorptance
  0.2,                                    !- Solar Absorptance
  0.2;                                    !- Visible Absorptance

OS:Material,
  {56140275-0ae8-4d7f-9df5-9dc5591c71b3}, !- Handle
  Metal Building Semi-Cond Wall Insulation, !- Name
  MediumRough,                            !- Roughness
  0.0495494599433393,                     !- Thickness {m}
  0.049,                                  !- Conductivity {W/m-K}
  265,                                    !- Density {kg/m3}
  836.8,                                  !- Specific Heat {J/kg-K}
  0.9,                                    !- Thermal Absorptance
  0.7,                                    !- Solar Absorptance
  0.7;                                    !- Visible Absorptance

OS:Material,
  {e1b14837-a903-46d9-88fe-9b0b8a0ed02e}, !- Handle
  1/2IN Gypsum,                           !- Name
  Smooth,                                 !- Roughness
  0.0127,                                 !- Thickness {m}
  0.16,                                   !- Conductivity {W/m-K}
  784.9,                                  !- Density {kg/m3}
  830,                                    !- Specific Heat {J/kg-K}
  0.9,                                    !- Thermal Absorptance
  0.92,                                   !- Solar Absorptance
  0.92;                                   !- Visible Absorptance

OS:Space,
  {c93c351e-902f-4f22-97b3-45894d48f6b9}, !- Handle
  FineStorage,                            !- Name
  {c2335ba7-1447-4cac-9c4b-5981bd1637a8}, !- Space Type Name
  ,                                       !- Default Construction Set Name
  ,                                       !- Default Schedule Set Name
  0,                                      !- Direction of Relative North {deg}
  0,                                      !- X Origin {m}
  0,                                      !- Y Origin {m}
  0,                                      !- Z Origin {m}
  {d82e6315-cd98-4a06-afbe-37b860c390fe}, !- Building Story Name
  {5efde556-9853-419b-bcab-165435a34275}, !- Thermal Zone Name
  Yes,                                    !- Part of Total Floor Area
  {fc4442fa-1b7e-45dd-8b09-596051652a37}; !- Design Specification Outdoor Air Object Name

OS:Schedule:Compact,
  {3f31dd74-7d90-423d-a7d7-f2b9e4410b87}, !- Handle
  HTGSETP_FineStorage_SCH,                !- Name
  {faef3332-392f-4f59-88bf-0c1ec09662f4}, !- Schedule Type Limits Name
  Through: 12/31,                         !- Field 1
  For: AllDays,                           !- Field 2
  Until: 24:00,                           !- Field 3
  15.6;                                   !- Field 4

OS:Schedule:Compact,
  {8ce6db3c-046f-49c6-a937-f1e21e88921e}, !- Handle
  CLGSETP_FineStorage_SCH,                !- Name
  {faef3332-392f-4f59-88bf-0c1ec09662f4}, !- Schedule Type Limits Name
  Through: 12/31,                         !- Field 1
  For: AllDays,                           !- Field 2
  Until: 24:00,                           !- Field 3
  26.7;                                   !- Field 4

OS:Meter,
  {afe6e309-424e-437d-af56-d5058f8992ca}, !- Handle
  Pumps:Electricity,                      !- Name
  hourly,                                 !- Reporting Frequency
  False,                                  !- Meter File Only
  False;                                  !- Cumulative

OS:SubSurface,
  {d462e1d4-41e2-4cc5-a942-0a8e2736033a}, !- Handle
  Office_Wall_West Door,                  !- Name
  Door,                                   !- Sub Surface Type
  {a9a8b0e6-a652-4558-8d76-776dd95a00dd}, !- Construction Name
  {be79e209-39ac-45bc-aa78-912a889492fa}, !- Surface Name
  ,                                       !- Outside Boundary Condition Object
  ,                                       !- View Factor to Ground
  ,                                       !- Shading Control Name
  ,                                       !- Frame and Divider Name
  1,                                      !- Multiplier
  ,                                       !- Number of Vertices
  0, 5.029, 2.1335,                       !- X,Y,Z Vertex 1 {m}
  0, 5.029, 0,                            !- X,Y,Z Vertex 2 {m}
  0, 4.1146, 0,                           !- X,Y,Z Vertex 3 {m}
  0, 4.1146, 2.1335;                      !- X,Y,Z Vertex 4 {m}

OS:Construction,
  {a9a8b0e6-a652-4558-8d76-776dd95a00dd}, !- Handle
  Swinging Door Semi-Cond,                !- Name
  ,                                       !- Surface Rendering Name
  {36d2e489-bdff-4c67-9e0c-2b154082c343}; !- Layer 1

OS:Material:NoMass,
  {36d2e489-bdff-4c67-9e0c-2b154082c343}, !- Handle
  Opaque Door panel Semi-Cond,            !- Name
  MediumRough,                            !- Roughness
  0.101897046243647,                      !- Thermal Resistance {m2-K/W}
  0.9,                                    !- Thermal Absorptance
  0.7,                                    !- Solar Absorptance
  0.7;                                    !- Visible Absorptance

OS:Surface,
  {be79e209-39ac-45bc-aa78-912a889492fa}, !- Handle
  Office_Wall_West,                       !- Name
  Wall,                                   !- Surface Type
  {98b868d7-1f30-405b-9a41-ee364464b1db}, !- Construction Name
  {cbfa4925-cc52-4f89-8780-d0579c833d32}, !- Space Name
  Outdoors,                               !- Outside Boundary Condition
  ,                                       !- Outside Boundary Condition Object
  SunExposed,                             !- Sun Exposure
  WindExposed,                            !- Wind Exposure
  ,                                       !- View Factor to Ground
  ,                                       !- Number of Vertices
  0, 9.1435, 4.267,                       !- X,Y,Z Vertex 1 {m}
  0, 9.1435, 0,                           !- X,Y,Z Vertex 2 {m}
  0, 0, 0,                                !- X,Y,Z Vertex 3 {m}
  0, 0, 4.267;                            !- X,Y,Z Vertex 4 {m}

OS:Construction,
  {c2bd5ce5-0567-4007-b696-98b74d09b735}, !- Handle
  AIR-WALL,                               !- Name
  ,                                       !- Surface Rendering Name
  {e92791e3-e640-4990-9b19-aad02db4107c}; !- Layer 1

OS:Material:NoMass,
  {e92791e3-e640-4990-9b19-aad02db4107c}, !- Handle
  MAT-AIR-WALL,                           !- Name
  Rough,                                  !- Roughness
  0.2079491,                              !- Thermal Resistance {m2-K/W}
  0.9,                                    !- Thermal Absorptance
  0.7;                                    !- Solar Absorptance

OS:Building,
  {4c73d35c-4825-4392-b6ad-713da7b30e72}, !- Handle
  Warehouse,                              !- Name
  ,                                       !- Building Sector Type
  0,                                      !- North Axis {deg}
  ,                                       !- Nominal Floor to Floor Height {m}
  ,                                       !- Space Type Name
  ,                                       !- Default Construction Set Name
  ;                                       !- Default Schedule Set Name

OS:Material,
  {47db6cd1-357c-4dcd-bdd3-a09af86162ac}, !- Handle
  Metal Roofing,                          !- Name
  MediumSmooth,                           !- Roughness
  0.0015,                                 !- Thickness {m}
  45.006,                                 !- Conductivity {W/m-K}
  7680,                                   !- Density {kg/m3}
  418.4,                                  !- Specific Heat {J/kg-K}
  0.9,                                    !- Thermal Absorptance
  0.7,                                    !- Solar Absorptance
  0.3;                                    !- Visible Absorptance

OS:Curve:Biquadratic,
  {b42de681-2fd8-406c-8693-cb1824f471ac}, !- Handle
  Measured_CoolCStandard10Ton_EIRFT,      !- Name
  0.9847,                                 !- Coefficient1 Constant
  -0.04285,                               !- Coefficient2 x
  0.0013562,                              !- Coefficient3 x**2
  0.009934,                               !- Coefficient4 y
  0.0006398,                              !- Coefficient5 y**2
  -0.001169,                              !- Coefficient6 x*y
  11.1,                                   !- Minimum Value of x {BasedOnField A2}
  29.4,                                   !- Maximum Value of x {BasedOnField A2}
  10,                                     !- Minimum Value of y {BasedOnField A3}
  50.3;                                   !- Maximum Value of y {BasedOnField A3}

OS:Meter,
  {9447059d-9ff5-4e28-9ad8-15e1751ec200}, !- Handle
  Gas:Facility,                           !- Name
  hourly,                                 !- Reporting Frequency
  False,                                  !- Meter File Only
  False;                                  !- Cumulative

OS:Material:NoMass,
  {33da6696-0e9e-4ca6-96dd-ee100f602b2a}, !- Handle
  Std Overhead Door Panel Semi-Cond,      !- Name
  MediumRough,                            !- Roughness
  0.001,                                  !- Thermal Resistance {m2-K/W}
  0.9,                                    !- Thermal Absorptance
  0.7,                                    !- Solar Absorptance
  0.7;                                    !- Visible Absorptance

OS:RunPeriod,
  {9a10da2d-983e-42e3-9a9a-7f6f4250288c}, !- Handle
  Run Period 1,                           !- Name
  1,                                      !- Begin Month
  1,                                      !- Begin Day of Month
  12,                                     !- End Month
  31,                                     !- End Day of Month
  No,                                     !- Use Weather File Holidays and Special Days
  No,                                     !- Use Weather File Daylight Saving Period
  No,                                     !- Apply Weekend Holiday Rule
  Yes,                                    !- Use Weather File Rain Indicators
  Yes,                                    !- Use Weather File Snow Indicators
  1;                                      !- Number of Times Runperiod to be Repeated

OS:YearDescription,
  {a711f641-6e13-419d-b001-3b2b8ff5abf9}, !- Handle
  ,                                       !- Calendar Year
  Sunday;                                 !- Day of Week for Start Day

OS:Sizing:Parameters,
  {4f0e03a8-f5c5-495d-b5e5-3d19c85cae6e}, !- Handle
  1.2,                                    !- Heating Sizing Factor
  1.2,                                    !- Cooling Sizing Factor
  6;                                      !- Timesteps in Averaging Window

OS:Surface,
  {d89659fe-440b-4719-b9aa-36827e578753}, !- Handle
  Fine Storage Office_Wall_West,          !- Name
  Wall,                                   !- Surface Type
  {98b868d7-1f30-405b-9a41-ee364464b1db}, !- Construction Name
  {c93c351e-902f-4f22-97b3-45894d48f6b9}, !- Space Name
  Outdoors,                               !- Outside Boundary Condition
  ,                                       !- Outside Boundary Condition Object
  SunExposed,                             !- Sun Exposure
  WindExposed,                            !- Wind Exposure
  ,                                       !- View Factor to Ground
  ,                                       !- Number of Vertices
  0, 9.1435, 8.534,                       !- X,Y,Z Vertex 1 {m}
  0, 9.1435, 4.267,                       !- X,Y,Z Vertex 2 {m}
  0, 0, 4.267,                            !- X,Y,Z Vertex 3 {m}
  0, 0, 8.534;                            !- X,Y,Z Vertex 4 {m}

OS:Surface,
  {ac53ba3f-d64f-4125-b5e1-54df390d366a}, !- Handle
  FineStorage_Wall_South_1,               !- Name
  Wall,                                   !- Surface Type
  {98b868d7-1f30-405b-9a41-ee364464b1db}, !- Construction Name
  {c93c351e-902f-4f22-97b3-45894d48f6b9}, !- Space Name
  Outdoors,                               !- Outside Boundary Condition
  ,                                       !- Outside Boundary Condition Object
  SunExposed,                             !- Sun Exposure
  WindExposed,                            !- Wind Exposure
  ,                                       !- View Factor to Ground
  ,                                       !- Number of Vertices
  25.9067, 0, 8.534,                      !- X,Y,Z Vertex 1 {m}
  25.9067, 0, 0,                          !- X,Y,Z Vertex 2 {m}
  45.7178, 0, 0,                          !- X,Y,Z Vertex 3 {m}
  45.7178, 0, 8.534;                      !- X,Y,Z Vertex 4 {m}

OS:Schedule:Compact,
  {e4c98ed5-8e2a-4dea-89b0-ac6bb8c833d0}, !- Handle
  CLOTHING_SCH,                           !- Name
  ,                                       !- Schedule Type Limits Name
  Through: 04/30,                         !- Field 1
  For: AllDays,                           !- Field 2
  Until: 24:00,                           !- Field 3
  1.0,                                    !- Field 4
  Through: 09/30,                         !- Field 5
  For: AllDays,                           !- Field 6
  Until: 24:00,                           !- Field 7
  0.5,                                    !- Field 8
  Through: 12/31,                         !- Field 9
  For: AllDays,                           !- Field 10
  Until: 24:00,                           !- Field 11
  1.0;                                    !- Field 12

OS:ScheduleTypeLimits,
  {ed17fecd-cf0a-418d-83b6-69f410ddf740}, !- Handle
  {37189964-ce0b-48e6-ac9b-de508aff2790}; !- Name

OS:Surface,
  {27ac5841-9886-43a0-b163-21bd03e74967}, !- Handle
  FineStorage_Floor_2,                    !- Name
  Floor,                                  !- Surface Type
  {5d25d60e-45fb-49a5-8756-9c12298cc3e3}, !- Construction Name
  {c93c351e-902f-4f22-97b3-45894d48f6b9}, !- Space Name
  Surface,                                !- Outside Boundary Condition
  {447d5fda-ada1-4e8e-bb90-e1558c461d1c}, !- Outside Boundary Condition Object
  NoSun,                                  !- Sun Exposure
  NoWind,                                 !- Wind Exposure
  ,                                       !- View Factor to Ground
  ,                                       !- Number of Vertices
  25.9067, 9.1435, 4.267,                 !- X,Y,Z Vertex 1 {m}
  25.9067, 0, 4.267,                      !- X,Y,Z Vertex 2 {m}
  0, 0, 4.267,                            !- X,Y,Z Vertex 3 {m}
  0, 9.1435, 4.267;                       !- X,Y,Z Vertex 4 {m}

OS:Construction,
  {5d25d60e-45fb-49a5-8756-9c12298cc3e3}, !- Handle
  int-walls,                              !- Name
  ,                                       !- Surface Rendering Name
  {e1b14837-a903-46d9-88fe-9b0b8a0ed02e}, !- Layer 1
  {e1b14837-a903-46d9-88fe-9b0b8a0ed02e}; !- Layer 2

OS:Meter,
  {89156d7b-9b55-4d39-9e7e-4437358d0988}, !- Handle
  InteriorLights:Electricity,             !- Name
  hourly,                                 !- Reporting Frequency
  False,                                  !- Meter File Only
  False;                                  !- Cumulative

OS:Lights:Definition,
  {49bb2231-ec9d-426b-8441-9b4e6b02709e}, !- Handle
  Office_Lights Definition,               !- Name
  Watts/Area,                             !- Design Level Calculation Method
  ,                                       !- Lighting Level {W}
  11.84,                                  !- Watts per Space Floor Area {W/m2}
  ,                                       !- Watts per Person {W/person}
  0.5,                                    !- Fraction Radiant
  0.2,                                    !- Fraction Visible
  0,                                      !- Return Air Fraction
  No;                                     !- Return Air Fraction Calculated from Plenum Temperature

OS:Lights,
  {49707056-80e1-4809-8c73-3293a492730f}, !- Handle
  Office_Lights,                          !- Name
  {49bb2231-ec9d-426b-8441-9b4e6b02709e}, !- Lights Definition Name
  {cbfa4925-cc52-4f89-8780-d0579c833d32}, !- Space or SpaceType Name
  {1ee1db7c-bd12-429b-9389-3d39089c86da}, !- Schedule Name
  1,                                      !- Fraction Replaceable
  ,                                       !- Multiplier
  General;                                !- End-Use Subcategory

OS:Schedule:Compact,
  {1ee1db7c-bd12-429b-9389-3d39089c86da}, !- Handle
  BLDG_LIGHT_SCH,                         !- Name
  {dfd32e1c-eca6-4321-9365-43b50ac61af1}, !- Schedule Type Limits Name
  Through: 12/31,                         !- Field 1
  For: Weekdays,                          !- Field 2
  Until: 07:00,                           !- Field 3
  0.1,                                    !- Field 4
  Until: 08:00,                           !- Field 5
  0.4,                                    !- Field 6
  Until: 09:00,                           !- Field 7
  0.7,                                    !- Field 8
  Until: 12:00,                           !- Field 9
  0.9,                                    !- Field 10
  Until: 13:00,                           !- Field 11
  0.8,                                    !- Field 12
  Until: 17:00,                           !- Field 13
  0.9,                                    !- Field 14
  Until: 18:00,                           !- Field 15
  0.3,                                    !- Field 16
  Until: 24:00,                           !- Field 17
  0.1,                                    !- Field 18
  For: Saturday,                          !- Field 19
  Until: 08:00,                           !- Field 20
  0.1,                                    !- Field 21
  Until: 09:00,                           !- Field 22
  0.1,                                    !- Field 23
  Until: 12:00,                           !- Field 24
  0.24,                                   !- Field 25
  Until: 24:00,                           !- Field 26
  0.1,                                    !- Field 27
  For: SummerDesignDay,                   !- Field 28
  Until: 24:00,                           !- Field 29
  1.0,                                    !- Field 30
  For: WinterDesignDay,                   !- Field 31
  Until: 24:00,                           !- Field 32
  0.0,                                    !- Field 33
  For: Sunday Holidays AllOtherDays,      !- Field 34
  Until: 24:00,                           !- Field 35
  0.1;                                    !- Field 36

OS:ScheduleTypeLimits,
  {dfd32e1c-eca6-4321-9365-43b50ac61af1}, !- Handle
  Fraction,                               !- Name
  0,                                      !- Lower Limit Value {BasedOnField A4}
  1,                                      !- Upper Limit Value {BasedOnField A4}
  CONTINUOUS;                             !- Numeric Type

OS:Surface,
  {a7bad463-50ad-43e4-b676-e617cf307d04}, !- Handle
  FineStorage_Wall_East,                  !- Name
  Wall,                                   !- Surface Type
  {98b868d7-1f30-405b-9a41-ee364464b1db}, !- Construction Name
  {c93c351e-902f-4f22-97b3-45894d48f6b9}, !- Space Name
  Outdoors,                               !- Outside Boundary Condition
  ,                                       !- Outside Boundary Condition Object
  SunExposed,                             !- Sun Exposure
  WindExposed,                            !- Wind Exposure
  ,                                       !- View Factor to Ground
  ,                                       !- Number of Vertices
  45.7178, 0, 8.534,                      !- X,Y,Z Vertex 1 {m}
  45.7178, 0, 0,                          !- X,Y,Z Vertex 2 {m}
  45.7178, 30.4785, 0,                    !- X,Y,Z Vertex 3 {m}
  45.7178, 30.4785, 8.534;                !- X,Y,Z Vertex 4 {m}

OS:Curve:Cubic,
  {967bcfe9-a6d8-4bca-84c4-3d121414ab39}, !- Handle
  ConstantCubic,                          !- Name
  1,                                      !- Coefficient1 Constant
  0,                                      !- Coefficient2 x
  0,                                      !- Coefficient3 x**2
  0,                                      !- Coefficient4 x**3
  -100,                                   !- Minimum Value of x {BasedOnField A2}
  100;                                    !- Maximum Value of x {BasedOnField A2}

OS:Curve:Biquadratic,
  {30c292d3-2865-4dba-b6ad-e5c8a0e54cd7}, !- Handle
  Measured_LowSpeedCoolEIRLSFT,           !- Name
  1.1389,                                 !- Coefficient1 Constant
  -0.04518,                               !- Coefficient2 x
  0.0014298,                              !- Coefficient3 x**2
  0.006044,                               !- Coefficient4 y
  0.0006745,                              !- Coefficient5 y**2
  -0.0012325,                             !- Coefficient6 x*y
  11.1,                                   !- Minimum Value of x {BasedOnField A2}
  29.4,                                   !- Maximum Value of x {BasedOnField A2}
  10,                                     !- Minimum Value of y {BasedOnField A3}
  50.3;                                   !- Maximum Value of y {BasedOnField A3}

OS:Lights:Definition,
  {1b28c0fb-e78b-4c3f-b9c5-89e0be72fdba}, !- Handle
  BulkStorage_Lights Definition,          !- Name
  Watts/Area,                             !- Design Level Calculation Method
  ,                                       !- Lighting Level {W}
  9.68,                                   !- Watts per Space Floor Area {W/m2}
  ,                                       !- Watts per Person {W/person}
  0.5,                                    !- Fraction Radiant
  0.2,                                    !- Fraction Visible