
OS:Version,
  {9c7aed27-6ea1-4408-8f0a-7480bd37848e}, !- Handle
  1.4.0;                                  !- Version Identifier

OS:Site,
  {faecd613-9968-425f-9fdc-e929aa68dc07}, !- Handle
  Chicago Ohare Intl Ap_IL_USA Design_Conditions, !- Name
  41.98,                                  !- Latitude {deg}
  -87.92,                                 !- Longitude {deg}
  -6,                                     !- Time Zone {hr}
  201,                                    !- Elevation {m}
  City;                                   !- Terrain

OS:SimulationControl,
  {15d51e58-1faf-4716-8aac-6c267c8c1139}, !- Handle
  Yes,                                    !- Do Zone Sizing Calculation
  Yes,                                    !- Do System Sizing Calculation
  Yes,                                    !- Do Plant Sizing Calculation
  Yes,                                    !- Run Simulation for Sizing Periods
  Yes,                                    !- Run Simulation for Weather File Run Periods
  0.04,                                   !- Loads Convergence Tolerance Value
  0.2,                                    !- Temperature Convergence Tolerance Value {deltaC}
  FullInteriorAndExterior,                !- Solar Distribution
  25,                                     !- Maximum Number of Warmup Days
  6;                                      !- Minimum Number of Warmup Days

OS:Surface,
  {b14a540a-8ac3-4fb4-b61e-cd33f920dd35}, !- Handle
  Bathrooms_ZN_1_FLR_2_Wall_4,            !- Name
  Wall,                                   !- Surface Type
  ,                                       !- Construction Name
  {8c07a26c-759e-4a0c-be83-e179d3ff1ba1}, !- Space Name
  Outdoors,                               !- Outside Boundary Condition
  ,                                       !- Outside Boundary Condition Object
  SunExposed,                             !- Sun Exposure
  WindExposed,                            !- Wind Exposure
  ,                                       !- View Factor to Ground
  ,                                       !- Number of Vertices
  15, 14, 4,                              !- X,Y,Z Vertex 1 {m}
  15, 14, 0,                              !- X,Y,Z Vertex 2 {m}
  0, 14, 0,                               !- X,Y,Z Vertex 3 {m}
  0, 14, 4;                               !- X,Y,Z Vertex 4 {m}

OS:Connection,
  {3daf5232-c140-4073-8a54-d868ab119172}, !- Handle
  {9592f81a-88d7-436f-9bad-f210e04a30bb}, !- Name
  ,                                       !- Source Object
  11,                                     !- Outlet Port
  ,                                       !- Target Object
  2;                                      !- Inlet Port

OS:Space,
  {8c07a26c-759e-4a0c-be83-e179d3ff1ba1}, !- Handle
  Bathrooms_ZN_1_FLR_2,                   !- Name
  ,                                       !- Space Type Name
  ,                                       !- Default Construction Set Name
  ,                                       !- Default Schedule Set Name
  0,                                      !- Direction of Relative North {deg}
  64,                                     !- X Origin {m}
  90,                                     !- Y Origin {m}
  4,                                      !- Z Origin {m}
  ,                                       !- Building Story Name
  ,                                       !- Thermal Zone Name
  Yes;                                    !- Part of Total Floor Area

OS:Schedule:Compact,
  {528eec1c-3b63-4d0f-b6bc-6626c5d80c62}, !- Handle
  HTGSETP_SCH_Setback,                    !- Name
  {abd7aa1f-9e0f-4558-a397-58fe9cf942d5}, !- Schedule Type Limits Name
  Through: 12/31,                         !- Field 1
  For: SummerDesignDay,                   !- Field 2
  Until: 24:00,                           !- Field 3
  15.6,                                   !- Field 4
  For: WinterDesignDay,                   !- Field 5
  Until: 24:00,                           !- Field 6
  21,                                     !- Field 7
  For: Weekdays,                          !- Field 8
  Until: 09:00,                           !- Field 9
  15.6,                                   !- Field 10
  Until: 21:00,                           !- Field 11
  15.6,                                   !- Field 12
  Until: 24:00,                           !- Field 13
  15.6,                                   !- Field 14
  For: WeekEnds Holidays AllOtherDays,    !- Field 15
  Until: 24:00,                           !- Field 16
  15.6;                                   !- Field 17

OS:ScheduleTypeLimits,
  {abd7aa1f-9e0f-4558-a397-58fe9cf942d5}, !- Handle
  Temperature,                            !- Name
  -60,                                    !- Lower Limit Value {BasedOnField A4}
  200,                                    !- Upper Limit Value {BasedOnField A4}
  CONTINUOUS,                             !- Numeric Type
  Temperature;                            !- Unit Type

OS:Schedule:Compact,
  {a6c91a3f-bd01-48c6-a001-8bfd70559dd2}, !- Handle
  CLGSETP_SCH_Setup,                      !- Name
  {abd7aa1f-9e0f-4558-a397-58fe9cf942d5}, !- Schedule Type Limits Name
  Through: 12/31,                         !- Field 1
  For: SummerDesignDay,                   !- Field 2
  Until: 24:00,                           !- Field 3
  24,                                     !- Field 4
  For: WinterDesignDay,                   !- Field 5
  Until: 24:00,                           !- Field 6
  29.44,                                  !- Field 7
  For: Weekdays,                          !- Field 8
  Until: 24:00,                           !- Field 9
  29.44,                                  !- Field 10
  For: WeekEnds Holidays AllOtherDays,    !- Field 11
  Until: 09:00,                           !- Field 12
  29.44,                                  !- Field 13
  Until: 19:00,                           !- Field 14
  29.44,                                  !- Field 15
  Until: 24:00,                           !- Field 16
  29.44;                                  !- Field 17

OS:Surface,
  {7ef6e8c5-bf4d-4669-89e1-78154a5a9a65}, !- Handle
  Corner_Class_2_Pod_3_ZN_1_FLR_2_Wall_3, !- Name
  Wall,                                   !- Surface Type
  ,                                       !- Construction Name
  {f70833c5-e11a-4fe3-b01f-1ec1692c6820}, !- Space Name
  Outdoors,                               !- Outside Boundary Condition
  ,                                       !- Outside Boundary Condition Object
  SunExposed,                             !- Sun Exposure
  WindExposed,                            !- Wind Exposure
  ,                                       !- View Factor to Ground
  ,                                       !- Number of Vertices
  11, 9, 4,                               !- X,Y,Z Vertex 1 {m}
  11, 9, 0,                               !- X,Y,Z Vertex 2 {m}
  0, 9, 0,                                !- X,Y,Z Vertex 3 {m}
  0, 9, 4;                                !- X,Y,Z Vertex 4 {m}

OS:Connection,
  {810bbf4f-ecea-46ac-8c19-13efbf0027fd}, !- Handle
  {39ba36c4-274d-47fb-bf74-595c688c06f3}, !- Name
  ,                                       !- Source Object
  11,                                     !- Outlet Port
  ,                                       !- Target Object
  2;                                      !- Inlet Port

OS:Space,
  {f70833c5-e11a-4fe3-b01f-1ec1692c6820}, !- Handle
  Corner_Class_2_Pod_3_ZN_1_FLR_2,        !- Name
  ,                                       !- Space Type Name
  ,                                       !- Default Construction Set Name
  ,                                       !- Default Schedule Set Name
  0,                                      !- Direction of Relative North {deg}
  0,                                      !- X Origin {m}
  95,                                     !- Y Origin {m}
  4,                                      !- Z Origin {m}
  ,                                       !- Building Story Name
  ,                                       !- Thermal Zone Name
  Yes;                                    !- Part of Total Floor Area

OS:Schedule:Compact,
  {f00ccccb-8ae1-440e-b24f-480530116d40}, !- Handle
  HTGSETP_SCH_YES_OPTIMUM,                !- Name
  {abd7aa1f-9e0f-4558-a397-58fe9cf942d5}, !- Schedule Type Limits Name
  Through: 12/31,                         !- Field 1
  For: SummerDesignDay,                   !- Field 2
  Until: 24:00,                           !- Field 3
  15.6,                                   !- Field 4
  For: WinterDesignDay,                   !- Field 5
  Until: 24:00,                           !- Field 6
  21,                                     !- Field 7
  For: Weekdays,                          !- Field 8
  Until: 06:00,                           !- Field 9
  15.6,                                   !- Field 10
  Until: 07:00,                           !- Field 11
  17.8,                                   !- Field 12
  Until: 08:00,                           !- Field 13
  20.0,                                   !- Field 14
  Until: 21:00,                           !- Field 15
  21,                                     !- Field 16
  Until: 24:00,                           !- Field 17
  15.6,                                   !- Field 18
  For: WeekEnds Holidays AllOtherDays,    !- Field 19
  Until: 24:00,                           !- Field 20
  15.6;                                   !- Field 21

OS:Schedule:Compact,
  {b38a2426-b1f4-47f1-980a-9d075f6e66ab}, !- Handle
  CLGSETP_SCH_NO_SETBACK,                 !- Name
  {abd7aa1f-9e0f-4558-a397-58fe9cf942d5}, !- Schedule Type Limits Name
  Through: 12/31,                         !- Field 1
  For: SummerDesignDay,                   !- Field 2
  Until: 24:00,                           !- Field 3
  24,                                     !- Field 4
  For: WinterDesignDay,                   !- Field 5
  Until: 24:00,                           !- Field 6
  29.44,                                  !- Field 7
  For: Weekdays,                          !- Field 8
  Until: 06:00,                           !- Field 9
  24,                                     !- Field 10
  Until: 07:00,                           !- Field 11
  24,                                     !- Field 12
  Until: 08:00,                           !- Field 13
  24,                                     !- Field 14
  Until: 21:00,                           !- Field 15
  24,                                     !- Field 16
  Until: 24:00,                           !- Field 17
  24,                                     !- Field 18
  For: WeekEnds Holidays AllOtherDays,    !- Field 19
  Until: 24:00,                           !- Field 20
  24;                                     !- Field 21

OS:Schedule:Compact,
  {115e6b86-b806-43c8-95ee-533ef3ddba49}, !- Handle
  BLDG_LIGHT_GYM_SCH,                     !- Name
  {2bb884e9-90f9-4a5d-b4b5-62d2bdab4f57}, !- Schedule Type Limits Name
  Through: 6/30,                          !- Field 1
  For: Weekdays,                          !- Field 2
  Until: 7:00,                            !- Field 3
  0.1773,                                 !- Field 4
  Until: 8:00,                            !- Field 5
  0.9,                                    !- Field 6
  Until: 21:00,                           !- Field 7
  0.88182,                                !- Field 8
  Until: 24:00,                           !- Field 9
  0.1773,                                 !- Field 10
  For: SummerDesignDay,                   !- Field 11
  Until: 24:00,                           !- Field 12
  1,                                      !- Field 13
  For: WinterDesignDay,                   !- Field 14
  Until: 24:00,                           !- Field 15
  0,                                      !- Field 16
  For: WeekEnds Holidays AllOtherDays,    !- Field 17
  Until: 24:00,                           !- Field 18
  0.1773,                                 !- Field 19
  Through: 9/1,                           !- Field 20
  For: Weekdays,                          !- Field 21
  Until: 8:00,                            !- Field 22
  0.1773,                                 !- Field 23
  Until: 20:00,                           !- Field 24
  0.4899,                                 !- Field 25
  Until: 21:00,                           !- Field 26
  0.17371854,                             !- Field 27
  Until: 24:00,                           !- Field 28
  0.1773,                                 !- Field 29
  For: SummerDesignDay,                   !- Field 30
  Until: 24:00,                           !- Field 31
  1,                                      !- Field 32
  For: WinterDesignDay,                   !- Field 33
  Until: 24:00,                           !- Field 34
  0,                                      !- Field 35
  For: WeekEnds Holidays AllOtherDays,    !- Field 36
  Until: 24:00,                           !- Field 37
  0.1773,                                 !- Field 38
  Through: 12/31,                         !- Field 39
  For: Weekdays,                          !- Field 40
  Until: 7:00,                            !- Field 41
  0.1773,                                 !- Field 42
  Until: 8:00,                            !- Field 43
  0.9,                                    !- Field 44
  Until: 21:00,                           !- Field 45
  0.88182,                                !- Field 46
  Until: 24:00,                           !- Field 47
  0.1773,                                 !- Field 48
  For: SummerDesignDay,                   !- Field 49
  Until: 24:00,                           !- Field 50
  1,                                      !- Field 51
  For: WinterDesignDay,                   !- Field 52
  Until: 24:00,                           !- Field 53
  0,                                      !- Field 54
  For: WeekEnds Holidays AllOtherDays,    !- Field 55
  Until: 24:00,                           !- Field 56
  0.1773;                                 !- Field 57

OS:ScheduleTypeLimits,
  {2bb884e9-90f9-4a5d-b4b5-62d2bdab4f57}, !- Handle
  Fraction,                               !- Name
  0,                                      !- Lower Limit Value {BasedOnField A4}
  1,                                      !- Upper Limit Value {BasedOnField A4}
  CONTINUOUS;                             !- Numeric Type

OS:Surface,
  {466bbd9d-853a-46c7-8656-a7cc8aa1a410}, !- Handle
  Kitchen_ZN_1_FLR_1_Floor,               !- Name
  Floor,                                  !- Surface Type
  ,                                       !- Construction Name
  {5ac31c4c-fc60-49f4-83e3-b5b17c6fe4fc}, !- Space Name
  Ground,                                 !- Outside Boundary Condition
  ,                                       !- Outside Boundary Condition Object
  NoSun,                                  !- Sun Exposure
  NoWind,                                 !- Wind Exposure
  ,                                       !- View Factor to Ground
  ,                                       !- Number of Vertices
  24, 9, 0,                               !- X,Y,Z Vertex 1 {m}
  24, 0, 0,                               !- X,Y,Z Vertex 2 {m}
  0, 0, 0,                                !- X,Y,Z Vertex 3 {m}
  0, 9, 0;                                !- X,Y,Z Vertex 4 {m}

OS:Connection,
  {0d02f7c4-82e0-4566-bedf-8548fb9d79fa}, !- Handle
  {ad48ea30-5506-4f01-92bd-f90e852acad9}, !- Name
  ,                                       !- Source Object
  11,                                     !- Outlet Port
  ,                                       !- Target Object
  2;                                      !- Inlet Port

OS:Space,
  {5ac31c4c-fc60-49f4-83e3-b5b17c6fe4fc}, !- Handle
  Kitchen_ZN_1_FLR_1,                     !- Name
  ,                                       !- Space Type Name
  ,                                       !- Default Construction Set Name
  ,                                       !- Default Schedule Set Name
  0,                                      !- Direction of Relative North {deg}
  117,                                    !- X Origin {m}
  66,                                     !- Y Origin {m}
  0,                                      !- Z Origin {m}
  ,                                       !- Building Story Name
  ,                                       !- Thermal Zone Name
  Yes;                                    !- Part of Total Floor Area

OS:Schedule:Compact,
  {ecd6bb16-6bb2-4c0c-837e-2d8fabe21393}, !- Handle
  HTGSETP_SCH_PSZ_AC_4_8,                 !- Name
  {abd7aa1f-9e0f-4558-a397-58fe9cf942d5}, !- Schedule Type Limits Name
  Through: 12/31,                         !- Field 1
  For: SummerDesignDay,                   !- Field 2
  Until: 24:00,                           !- Field 3
  15.6,                                   !- Field 4
  For: WinterDesignDay,                   !- Field 5
  Until: 24:00,                           !- Field 6
  21,                                     !- Field 7
  For: Weekdays,                          !- Field 8
  Until: 06:00,                           !- Field 9
  15.6,                                   !- Field 10
  Until: 07:00,                           !- Field 11
  21,                                     !- Field 12
  Until: 08:00,                           !- Field 13
  21,                                     !- Field 14
  Until: 21:00,                           !- Field 15
  21,                                     !- Field 16
  Until: 24:00,                           !- Field 17
  15.6,                                   !- Field 18
  For: WeekEnds Holidays AllOtherDays,    !- Field 19
  Until: 24:00,                           !- Field 20
  15.6;                                   !- Field 21

OS:Connection,
  {3c583f04-3d48-4edf-8dc0-727ec1de4fc8}, !- Handle
  {165afff4-e748-4e2f-bef4-793384703f30}, !- Name
  ,                                       !- Source Object
  11,                                     !- Outlet Port
  ,                                       !- Target Object
  2;                                      !- Inlet Port

OS:Space,
  {ca77a65a-8c83-47b2-8f2a-9d681b5b657c}, !- Handle
  Corner_Class_1_Pod_2_ZN_1_FLR_1,        !- Name
  ,                                       !- Space Type Name
  ,                                       !- Default Construction Set Name
  ,                                       !- Default Schedule Set Name
  0,                                      !- Direction of Relative North {deg}
  0,                                      !- X Origin {m}
  40,                                     !- Y Origin {m}
  0,                                      !- Z Origin {m}
  ,                                       !- Building Story Name
  ,                                       !- Thermal Zone Name
  Yes;                                    !- Part of Total Floor Area

OS:Schedule:Compact,
  {8dc2b91c-3a65-493f-95d7-a5d818984ff7}, !- Handle
  BLDG_OCC_SCH,                           !- Name
  {2bb884e9-90f9-4a5d-b4b5-62d2bdab4f57}, !- Schedule Type Limits Name
  Through: 6/15,                          !- Field 1
  For: Weekdays SummerDesignDay,          !- Field 2
  Until: 08:00,                           !- Field 3
  0,                                      !- Field 4
  Until: 16:00,                           !- Field 5
  0.95,                                   !- Field 6
  Until: 21:00,                           !- Field 7
  0.15,                                   !- Field 8
  Until: 24:00,                           !- Field 9
  0,                                      !- Field 10
  For: WeekEnds WinterDesignDay Holidays AllOtherDays, !- Field 11
  Until: 24:00,                           !- Field 12
  0,                                      !- Field 13
  Through: 9/15,                          !- Field 14
  For: Weekdays SummerDesignDay,          !- Field 15
  Until: 08:00,                           !- Field 16
  0,                                      !- Field 17
  Until: 16:00,                           !- Field 18
  0.15,                                   !- Field 19
  Until: 21:00,                           !- Field 20
  0.15,                                   !- Field 21
  Until: 24:00,                           !- Field 22
  0,                                      !- Field 23
  For: WeekEnds WinterDesignDay Holidays AllOtherDays, !- Field 24
  Until: 24:00,                           !- Field 25
  0,                                      !- Field 26
  Through: 12/31,                         !- Field 27
  For: Weekdays SummerDesignDay,          !- Field 28
  Until: 08:00,                           !- Field 29
  0,                                      !- Field 30
  Until: 16:00,                           !- Field 31
  0.95,                                   !- Field 32
  Until: 21:00,                           !- Field 33
  0.15,                                   !- Field 34
  Until: 24:00,                           !- Field 35
  0,                                      !- Field 36
  For: WeekEnds WinterDesignDay Holidays AllOtherDays, !- Field 37
  Until: 24:00,                           !- Field 38
  0;                                      !- Field 39

OS:Schedule:Compact,
  {205917d5-4849-4adf-adf6-a6486ed2026a}, !- Handle
  ACTIVITY_SCH,                           !- Name
  {ac35edb4-1bff-4646-8a30-835f711d6525}, !- Schedule Type Limits Name
  Through: 12/31,                         !- Field 1
  For: AllDays,                           !- Field 2
  Until: 24:00,                           !- Field 3
  120;                                    !- Field 4

OS:ScheduleTypeLimits,
  {519a9d70-1d7d-43ea-ae78-fb4ceb8db0b3}, !- Handle
  {3e56c954-4a11-48a3-a389-02fd2fbdc090}; !- Name

OS:ScheduleTypeLimits,
  {ac35edb4-1bff-4646-8a30-835f711d6525}, !- Handle
  ActivityLevel,                          !- Name
  0,                                      !- Lower Limit Value {BasedOnField A4}
  ,                                       !- Upper Limit Value {BasedOnField A4}
  Continuous,                             !- Numeric Type
  ActivityLevel;                          !- Unit Type

OS:Schedule:Compact,
  {40d71138-2b5d-4eed-83c9-3aedfee6960c}, !- Handle
  WORK_EFF_SCH,                           !- Name
  {2bb884e9-90f9-4a5d-b4b5-62d2bdab4f57}, !- Schedule Type Limits Name
  Through: 12/31,                         !- Field 1
  For: AllDays,                           !- Field 2
  Until: 24:00,                           !- Field 3
  0;                                      !- Field 4

OS:SubSurface,
  {46d4a197-8aa7-49f9-8cca-70373b802fb4}, !- Handle
  Gym_ZN_1_FLR_2_skylight_44,             !- Name
  Skylight,                               !- Sub Surface Type
  ,                                       !- Construction Name
  {4b4b6a4c-1a14-40ab-ad3b-d253940966b3}, !- Surface Name
  ,                                       !- Outside Boundary Condition Object
  ,                                       !- View Factor to Ground
  ,                                       !- Shading Control Name
  ,                                       !- Frame and Divider Name
  1,                                      !- Multiplier
  ,                                       !- Number of Vertices
  10.11, 42.7237, 8,                      !- X,Y,Z Vertex 1 {m}
  10.11, 43.9429, 8,                      !- X,Y,Z Vertex 2 {m}
  8.89, 43.9429, 8,                       !- X,Y,Z Vertex 3 {m}
  8.89, 42.7237, 8;                       !- X,Y,Z Vertex 4 {m}

OS:Surface,
  {4b4b6a4c-1a14-40ab-ad3b-d253940966b3}, !- Handle
  Gym_ZN_1_FLR_2_Ceiling,                 !- Name
  RoofCeiling,                            !- Surface Type
  ,                                       !- Construction Name
  {5b6d79a1-ca37-4ac2-86a5-1120aebe4e62}, !- Space Name
  Outdoors,                               !- Outside Boundary Condition
  ,                                       !- Outside Boundary Condition Object
  SunExposed,                             !- Sun Exposure
  WindExposed,                            !- Wind Exposure
  ,                                       !- View Factor to Ground
  ,                                       !- Number of Vertices
  38, 0, 8,                               !- X,Y,Z Vertex 1 {m}
  38, 52, 8,                              !- X,Y,Z Vertex 2 {m}
  0, 52, 8,                               !- X,Y,Z Vertex 3 {m}
  0, 0, 8;                                !- X,Y,Z Vertex 4 {m}

OS:Connection,
  {f6d493f2-07d8-4629-8718-f178beb56343}, !- Handle
  {963a57e1-8a25-4e3b-bfe0-e1ba11eef2e6}, !- Name
  ,                                       !- Source Object
  11,                                     !- Outlet Port
  ,                                       !- Target Object
  2;                                      !- Inlet Port

OS:Space,
  {5b6d79a1-ca37-4ac2-86a5-1120aebe4e62}, !- Handle
  Gym_ZN_1_FLR_1,                         !- Name
  ,                                       !- Space Type Name
  ,                                       !- Default Construction Set Name
  ,                                       !- Default Schedule Set Name
  0,                                      !- Direction of Relative North {deg}
  79,                                     !- X Origin {m}
  14,                                     !- Y Origin {m}
  0,                                      !- Z Origin {m}
  ,                                       !- Building Story Name
  ,                                       !- Thermal Zone Name
  Yes;                                    !- Part of Total Floor Area

OS:Schedule:Compact,
  {a79be019-a98a-4237-bf34-ed089b8986a2}, !- Handle
  HTGSETP_SCH_PSZ_AC_1_5,                 !- Name
  {abd7aa1f-9e0f-4558-a397-58fe9cf942d5}, !- Schedule Type Limits Name
  Through: 12/31,                         !- Field 1
  For: SummerDesignDay,                   !- Field 2
  Until: 24:00,                           !- Field 3
  15.6,                                   !- Field 4
  For: WinterDesignDay,                   !- Field 5
  Until: 24:00,                           !- Field 6
  21,                                     !- Field 7
  For: Weekdays,                          !- Field 8
  Until: 06:00,                           !- Field 9
  15.6,                                   !- Field 10
  Until: 07:00,                           !- Field 11
  21,                                     !- Field 12
  Until: 08:00,                           !- Field 13
  21,                                     !- Field 14
  Until: 21:00,                           !- Field 15
  21,                                     !- Field 16
  Until: 24:00,                           !- Field 17
  15.6,                                   !- Field 18
  For: WeekEnds Holidays AllOtherDays,    !- Field 19
  Until: 24:00,                           !- Field 20
  15.6;                                   !- Field 21

OS:SubSurface,
  {37656382-f771-4078-a8c3-6372271a9a0e}, !- Handle
  Offices_ZN_1_FLR_1_Wall_1_window_1,     !- Name
  FixedWindow,                            !- Sub Surface Type
  ,                                       !- Construction Name
  {52eeee34-1919-4eec-abc4-9285a85be0dc}, !- Surface Name
  ,                                       !- Outside Boundary Condition Object
  ,                                       !- View Factor to Ground
  ,                                       !- Shading Control Name
  ,                                       !- Frame and Divider Name
  1,                                      !- Multiplier
  ,                                       !- Number of Vertices
  0.05, 0, 2.50371,                       !- X,Y,Z Vertex 1 {m}
  0.05, 0, 1.1,                           !- X,Y,Z Vertex 2 {m}
  37.95, 0, 1.1,                          !- X,Y,Z Vertex 3 {m}
  37.95, 0, 2.50371;                      !- X,Y,Z Vertex 4 {m}

OS:Surface,
  {52eeee34-1919-4eec-abc4-9285a85be0dc}, !- Handle
  Offices_ZN_1_FLR_1_Wall_1,              !- Name
  Wall,                                   !- Surface Type
  ,                                       !- Construction Name
  {07897017-2f7d-4da1-85cc-9c9ec7088e51}, !- Space Name
  Outdoors,                               !- Outside Boundary Condition
  ,                                       !- Outside Boundary Condition Object
  SunExposed,                             !- Sun Exposure
  WindExposed,                            !- Wind Exposure
  ,                                       !- View Factor to Ground
  ,                                       !- Number of Vertices
  0, 0, 4,                                !- X,Y,Z Vertex 1 {m}
  0, 0, 0,                                !- X,Y,Z Vertex 2 {m}
  38, 0, 0,                               !- X,Y,Z Vertex 3 {m}
  38, 0, 4;                               !- X,Y,Z Vertex 4 {m}

OS:Connection,
  {c28987b0-2c44-497e-bf5c-424849135b68}, !- Handle
  {9273b6ad-a20d-433a-860b-615c18d65e9c}, !- Name
  ,                                       !- Source Object
  11,                                     !- Outlet Port
  ,                                       !- Target Object
  2;                                      !- Inlet Port

OS:Space,
  {07897017-2f7d-4da1-85cc-9c9ec7088e51}, !- Handle
  Offices_ZN_1_FLR_1,                     !- Name
  ,                                       !- Space Type Name
  ,                                       !- Default Construction Set Name
  ,                                       !- Default Schedule Set Name
  0,                                      !- Direction of Relative North {deg}
  79,                                     !- X Origin {m}
  0,                                      !- Y Origin {m}
  0,                                      !- Z Origin {m}
  ,                                       !- Building Story Name
  ,                                       !- Thermal Zone Name
  Yes;                                    !- Part of Total Floor Area

OS:Surface,
  {a82b9ed5-c277-43fb-abe1-8881e66e7591}, !- Handle