
OS:Version,
  {db874efa-cb0d-431b-b4ee-eb1bce899c97}, !- Handle
  1.5.0;                                  !- Version Identifier

OS:Site,
  {9f396682-85cb-4495-a936-6e86af643385}, !- Handle
  USA TX-HOUSTON,                         !- Name
  29.97,                                  !- Latitude {deg}
  -95.37,                                 !- Longitude {deg}
  -6,                                     !- Time Zone {hr}
  33,                                     !- Elevation {m}
  City;                                   !- Terrain

OS:SimulationControl,
  {794652af-67b6-4501-83d4-53e7ce1bd2d5}, !- Handle
  Yes,                                    !- Do Zone Sizing Calculation
  Yes,                                    !- Do System Sizing Calculation
  Yes,                                    !- Do Plant Sizing Calculation
  No,                                     !- Run Simulation for Sizing Periods
  Yes,                                    !- Run Simulation for Weather File Run Periods
  0.04,                                   !- Loads Convergence Tolerance Value
  0.2,                                    !- Temperature Convergence Tolerance Value {deltaC}
  FullInteriorAndExterior,                !- Solar Distribution
  25,                                     !- Maximum Number of Warmup Days
  6;                                      !- Minimum Number of Warmup Days

OS:RunPeriod,
  {b6cd7986-ae8c-46ea-819d-881a9fedac6d}, !- Handle
  Run Period 1,                           !- Name
  1,                                      !- Begin Month
  1,                                      !- Begin Day of Month
  12,                                     !- End Month
  31,                                     !- End Day of Month
  No,                                     !- Use Weather File Holidays and Special Days
  No,                                     !- Use Weather File Daylight Saving Period
  No,                                     !- Apply Weekend Holiday Rule
  Yes,                                    !- Use Weather File Rain Indicators
  Yes,                                    !- Use Weather File Snow Indicators
  1;                                      !- Number of Times Runperiod to be Repeated

OS:YearDescription,
  {5806ce0d-6215-4a46-8174-029a370b95c7}, !- Handle
  ,                                       !- Calendar Year
  Sunday;                                 !- Day of Week for Start Day

OS:Meter,
  {6e70e506-ccea-4bbd-bde3-cc3d340ca5d1}, !- Handle
  Heating:Gas,                            !- Name
  hourly,                                 !- Reporting Frequency
  False,                                  !- Meter File Only
  False;                                  !- Cumulative

OS:Surface,
  {68fb005e-e509-4dd3-94b1-a6648b755160}, !- Handle
  Perimeter_ZN_4_wall_north,              !- Name
  Wall,                                   !- Surface Type
  ,                                       !- Construction Name
  {39132d6d-9985-4d36-a06e-7eb8109178f3}, !- Space Name
  Surface,                                !- Outside Boundary Condition
  {88391c55-0f1b-400f-a235-2d21bf094afa}, !- Outside Boundary Condition Object
  NoSun,                                  !- Sun Exposure
  NoWind,                                 !- Wind Exposure
  ,                                       !- View Factor to Ground
  ,                                       !- Number of Vertices
  5, 13.46, 3.05,                         !- X,Y,Z Vertex 1 {m}
  5, 13.46, 0,                            !- X,Y,Z Vertex 2 {m}
  0, 18.46, 0,                            !- X,Y,Z Vertex 3 {m}
  0, 18.46, 3.05;                         !- X,Y,Z Vertex 4 {m}

OS:Connection,
  {21a7ff01-cfa4-4ffd-b849-506481eb75a3}, !- Handle
  {43c28619-d64a-4f7d-91a4-0c4e3c18718c}, !- Name
  ,                                       !- Source Object
  11,                                     !- Outlet Port
  ,                                       !- Target Object
  2;                                      !- Inlet Port

OS:Space,
  {39132d6d-9985-4d36-a06e-7eb8109178f3}, !- Handle
  Perimeter_ZN_4,                         !- Name
  ,                                       !- Space Type Name
  ,                                       !- Default Construction Set Name
  ,                                       !- Default Schedule Set Name
  0,                                      !- Direction of Relative North {deg}
  0,                                      !- X Origin {m}
  0,                                      !- Y Origin {m}
  0,                                      !- Z Origin {m}
  ,                                       !- Building Story Name
  ,                                       !- Thermal Zone Name
  Yes,                                    !- Part of Total Floor Area
  ;                                       !- Design Specification Outdoor Air Object Name

OS:Schedule:Compact,
  {4796d104-0d1a-47b0-a72a-5f70890d7c31}, !- Handle
  HTGSETP_SCH,                            !- Name
  {76c789e5-e495-43a9-8900-cf1803d6d311}, !- Schedule Type Limits Name
  Through: 12/31,                         !- Field 1
  For: Weekdays,                          !- Field 2
  Until: 06:00,                           !- Field 3
  15.6,                                   !- Field 4
  Until: 22:00,                           !- Field 5
  21.0,                                   !- Field 6
  Until: 24:00,                           !- Field 7
  15.6,                                   !- Field 8
  For: Saturday,                          !- Field 9
  Until: 06:00,                           !- Field 10
  15.6,                                   !- Field 11
  Until: 18:00,                           !- Field 12
  21.0,                                   !- Field 13
  Until: 24:00,                           !- Field 14
  15.6,                                   !- Field 15
  For: WinterDesignDay,                   !- Field 16
  Until: 24:00,                           !- Field 17
  21.0,                                   !- Field 18
  For: AllOtherDays,                      !- Field 19
  Until: 24:00,                           !- Field 20
  15.6;                                   !- Field 21

OS:ScheduleTypeLimits,
  {76c789e5-e495-43a9-8900-cf1803d6d311}, !- Handle
  Temperature,                            !- Name
  -60,                                    !- Lower Limit Value {BasedOnField A4}
  200,                                    !- Upper Limit Value {BasedOnField A4}
  CONTINUOUS,                             !- Numeric Type
  Temperature;                            !- Unit Type

OS:Schedule:Compact,
  {1bee640c-1c46-4b89-b447-090c1ec9dff4}, !- Handle
  CLGSETP_SCH,                            !- Name
  {76c789e5-e495-43a9-8900-cf1803d6d311}, !- Schedule Type Limits Name
  Through: 12/31,                         !- Field 1
  For: Weekdays SummerDesignDay,          !- Field 2
  Until: 06:00,                           !- Field 3
  26.7,                                   !- Field 4
  Until: 22:00,                           !- Field 5
  24.0,                                   !- Field 6
  Until: 24:00,                           !- Field 7
  26.7,                                   !- Field 8
  For: Saturday,                          !- Field 9
  Until: 06:00,                           !- Field 10
  26.7,                                   !- Field 11
  Until: 18:00,                           !- Field 12
  24.0,                                   !- Field 13
  Until: 24:00,                           !- Field 14
  26.7,                                   !- Field 15
  For: AllOtherDays,                      !- Field 16
  Until: 24:00,                           !- Field 17
  26.7;                                   !- Field 18

OS:Surface,
  {c55fda0f-37ee-4863-b795-d4c328046287}, !- Handle
  Core_ZN_wall_west,                      !- Name
  Wall,                                   !- Surface Type
  ,                                       !- Construction Name
  {78bcd49a-52a5-4ef6-901b-8df80409492d}, !- Space Name
  Surface,                                !- Outside Boundary Condition
  {8ce196e2-0265-4631-89d8-800fdadcf520}, !- Outside Boundary Condition Object
  NoSun,                                  !- Sun Exposure
  NoWind,                                 !- Wind Exposure
  ,                                       !- View Factor to Ground
  ,                                       !- Number of Vertices
  5, 13.46, 3.05,                         !- X,Y,Z Vertex 1 {m}
  5, 13.46, 0,                            !- X,Y,Z Vertex 2 {m}
  5, 5, 0,                                !- X,Y,Z Vertex 3 {m}
  5, 5, 3.05;                             !- X,Y,Z Vertex 4 {m}

OS:Connection,
  {fcb4843b-0a7b-46f9-8c8e-4136666c7ac9}, !- Handle
  {a4ff515b-b4a3-4db1-98c8-fb48915b47f2}, !- Name
  ,                                       !- Source Object
  11,                                     !- Outlet Port
  ,                                       !- Target Object
  2;                                      !- Inlet Port

OS:Space,
  {78bcd49a-52a5-4ef6-901b-8df80409492d}, !- Handle
  Core_ZN,                                !- Name
  ,                                       !- Space Type Name
  ,                                       !- Default Construction Set Name
  ,                                       !- Default Schedule Set Name
  0,                                      !- Direction of Relative North {deg}
  0,                                      !- X Origin {m}
  0,                                      !- Y Origin {m}
  0,                                      !- Z Origin {m}
  ,                                       !- Building Story Name
  ,                                       !- Thermal Zone Name
  Yes,                                    !- Part of Total Floor Area
  ;                                       !- Design Specification Outdoor Air Object Name

OS:Connection,
  {c3bf3cbb-22b7-418a-8569-3d408bf2c12d}, !- Handle
  {d0092e75-818b-40ec-9570-3412a82d8a6b}, !- Name
  ,                                       !- Source Object
  11,                                     !- Outlet Port
  ,                                       !- Target Object
  2;                                      !- Inlet Port

OS:Space,
  {2469f141-d854-45bc-91a1-97754eaa30dc}, !- Handle
  Perimeter_ZN_3,                         !- Name
  ,                                       !- Space Type Name
  ,                                       !- Default Construction Set Name
  ,                                       !- Default Schedule Set Name
  0,                                      !- Direction of Relative North {deg}
  0,                                      !- X Origin {m}
  0,                                      !- Y Origin {m}
  0,                                      !- Z Origin {m}
  ,                                       !- Building Story Name
  ,                                       !- Thermal Zone Name
  Yes,                                    !- Part of Total Floor Area
  ;                                       !- Design Specification Outdoor Air Object Name

OS:Schedule:Compact,
  {acb3ced9-431b-436c-bab1-d91f1ba0cc1b}, !- Handle
  BLDG_LIGHT_SCH,                         !- Name
  {40075cd1-9551-40ed-a485-cfe54704240b}, !- Schedule Type Limits Name
  Through: 12/31,                         !- Field 1
  For: Weekdays,                          !- Field 2
  Until: 05:00,                           !- Field 3
  0.05,                                   !- Field 4
  Until: 07:00,                           !- Field 5
  0.1,                                    !- Field 6
  Until: 08:00,                           !- Field 7
  0.3,                                    !- Field 8
  Until: 17:00,                           !- Field 9
  0.9,                                    !- Field 10
  Until: 18:00,                           !- Field 11
  0.5,                                    !- Field 12
  Until: 20:00,                           !- Field 13
  0.3,                                    !- Field 14
  Until: 22:00,                           !- Field 15
  0.2,                                    !- Field 16
  Until: 23:00,                           !- Field 17
  0.1,                                    !- Field 18
  Until: 24:00,                           !- Field 19
  0.05,                                   !- Field 20
  For: Saturday,                          !- Field 21
  Until: 06:00,                           !- Field 22
  0.05,                                   !- Field 23
  Until: 08:00,                           !- Field 24
  0.1,                                    !- Field 25
  Until: 12:00,                           !- Field 26
  0.3,                                    !- Field 27
  Until: 17:00,                           !- Field 28
  0.15,                                   !- Field 29
  Until: 24:00,                           !- Field 30
  0.05,                                   !- Field 31
  For: SummerDesignDay,                   !- Field 32
  Until: 24:00,                           !- Field 33
  1.0,                                    !- Field 34
  For: WinterDesignDay,                   !- Field 35
  Until: 24:00,                           !- Field 36
  0.0,                                    !- Field 37
  For: AllOtherDays,                      !- Field 38
  Until: 24:00,                           !- Field 39
  0.05;                                   !- Field 40

OS:ScheduleTypeLimits,
  {40075cd1-9551-40ed-a485-cfe54704240b}, !- Handle
  Fraction,                               !- Name
  0,                                      !- Lower Limit Value {BasedOnField A4}
  1,                                      !- Upper Limit Value {BasedOnField A4}
  CONTINUOUS;                             !- Numeric Type

OS:ScheduleTypeLimits,
  {d37f7e47-4f4b-4f0c-b853-6a4bee2f6553}, !- Handle
  Control Type,                           !- Name
  0,                                      !- Lower Limit Value {BasedOnField A4}
  4,                                      !- Upper Limit Value {BasedOnField A4}
  DISCRETE,                               !- Numeric Type
  ControlMode;                            !- Unit Type

OS:Connection,
  {41483631-a716-4b8e-9ab8-827fdc9f34ec}, !- Handle
  {6dd6b4b9-fd93-4092-b263-7b94f94e4cba}, !- Name
  ,                                       !- Source Object
  11,                                     !- Outlet Port
  ,                                       !- Target Object
  2;                                      !- Inlet Port

OS:Space,
  {14032f70-c58b-4574-b465-aedb3302386e}, !- Handle
  Perimeter_ZN_2,                         !- Name
  ,                                       !- Space Type Name
  ,                                       !- Default Construction Set Name
  ,                                       !- Default Schedule Set Name
  0,                                      !- Direction of Relative North {deg}
  0,                                      !- X Origin {m}
  0,                                      !- Y Origin {m}
  0,                                      !- Z Origin {m}
  ,                                       !- Building Story Name
  ,                                       !- Thermal Zone Name
  Yes,                                    !- Part of Total Floor Area
  ;                                       !- Design Specification Outdoor Air Object Name

OS:Surface,
  {9f9583d1-3b01-4c72-bdf7-9f55c144391e}, !- Handle
  Perimeter_ZN_3_roof,                    !- Name
  RoofCeiling,                            !- Surface Type
  ,                                       !- Construction Name
  {2469f141-d854-45bc-91a1-97754eaa30dc}, !- Space Name
  Outdoors,                               !- Outside Boundary Condition
  ,                                       !- Outside Boundary Condition Object
  SunExposed,                             !- Sun Exposure
  WindExposed,                            !- Wind Exposure
  0,                                      !- View Factor to Ground
  ,                                       !- Number of Vertices
  22.69, 13.46, 3.05,                     !- X,Y,Z Vertex 1 {m}
  27.69, 18.46, 3.05,                     !- X,Y,Z Vertex 2 {m}
  0, 18.46, 3.05,                         !- X,Y,Z Vertex 3 {m}
  5, 13.46, 3.05;                         !- X,Y,Z Vertex 4 {m}

OS:Output:Variable,
  {709e8c48-f0d0-40b4-b08d-1c3415b3b83a}, !- Handle
  {c1ec5857-4924-4e0f-8c60-7ffb280197be}, !- Name
  ,                                       !- Key Value
  Zone Mechanical Ventilation Volume Flow Rate Current Density, !- Variable Name
  detailed;                               !- Reporting Frequency

OS:ConvergenceLimits,
  {d8159121-00b3-466c-ba12-58f17c2048ef}, !- Handle
  2,                                      !- Minimum System Timestep {minutes}
  25;                                     !- Maximum HVAC Iterations

OS:Timestep,
  {7eac0f4a-0f59-4c15-9389-61508ab9f091}, !- Handle
  6;                                      !- Number of Timesteps per Hour

OS:Schedule:Compact,
  {f73565ae-8789-4dee-affe-3bd6c5067b3c}, !- Handle
  SWHSys1 Water Heater Setpoint Temperature Schedule Name, !- Name
  {76c789e5-e495-43a9-8900-cf1803d6d311}, !- Schedule Type Limits Name
  Through: 12/31,                         !- Field 1
  For: AllDays,                           !- Field 2
  Until: 24:00,                           !- Field 3
  60.0;                                   !- Field 4

OS:Schedule:Compact,
  {4cc67173-6055-4fd3-81d2-b6fbba2d1a0f}, !- Handle
  BLDG_EQUIP_SCH,                         !- Name
  {40075cd1-9551-40ed-a485-cfe54704240b}, !- Schedule Type Limits Name
  Through: 12/31,                         !- Field 1
  For: Weekdays,                          !- Field 2
  Until: 08:00,                           !- Field 3
  0.40,                                   !- Field 4
  Until: 12:00,                           !- Field 5
  0.90,                                   !- Field 6
  Until: 13:00,                           !- Field 7
  0.80,                                   !- Field 8
  Until: 17:00,                           !- Field 9
  0.90,                                   !- Field 10
  Until: 18:00,                           !- Field 11
  0.50,                                   !- Field 12
  Until: 24:00,                           !- Field 13
  0.40,                                   !- Field 14
  For: Saturday,                          !- Field 15
  Until: 06:00,                           !- Field 16
  0.30,                                   !- Field 17
  Until: 08:00,                           !- Field 18
  0.4,                                    !- Field 19
  Until: 12:00,                           !- Field 20
  0.5,                                    !- Field 21
  Until: 17:00,                           !- Field 22
  0.35,                                   !- Field 23
  Until: 24:00,                           !- Field 24
  0.30,                                   !- Field 25
  For: SummerDesignDay,                   !- Field 26
  Until: 24:00,                           !- Field 27
  1.0,                                    !- Field 28
  For: WinterDesignDay,                   !- Field 29
  Until: 24:00,                           !- Field 30
  0.0,                                    !- Field 31
  For: AllOtherDays,                      !- Field 32
  Until: 24:00,                           !- Field 33
  0.30;                                   !- Field 34

OS:SubSurface,
  {8a1270e4-1c6d-4fd9-bcd4-0f95a6291ad3}, !- Handle
  Perimeter_ZN_2_wall_east_Window_3,      !- Name
  FixedWindow,                            !- Sub Surface Type
  ,                                       !- Construction Name
  {ab304832-2430-4498-849c-6b6f183e1a5d}, !- Surface Name
  ,                                       !- Outside Boundary Condition Object
  ,                                       !- View Factor to Ground
  ,                                       !- Shading Control Name
  ,                                       !- Frame and Divider Name
  1,                                      !- Multiplier
  ,                                       !- Number of Vertices
  27.69, 10.62, 2.424,                    !- X,Y,Z Vertex 1 {m}
  27.69, 10.62, 0.9,                      !- X,Y,Z Vertex 2 {m}
  27.69, 12.45, 0.9,                      !- X,Y,Z Vertex 3 {m}
  27.69, 12.45, 2.424;                    !- X,Y,Z Vertex 4 {m}

OS:Surface,
  {ab304832-2430-4498-849c-6b6f183e1a5d}, !- Handle
  Perimeter_ZN_2_wall_east,               !- Name
  Wall,                                   !- Surface Type
  ,                                       !- Construction Name
  {14032f70-c58b-4574-b465-aedb3302386e}, !- Space Name
  Outdoors,                               !- Outside Boundary Condition
  ,                                       !- Outside Boundary Condition Object
  SunExposed,                             !- Sun Exposure
  WindExposed,                            !- Wind Exposure
  ,                                       !- View Factor to Ground
  ,                                       !- Number of Vertices
  27.69, 0, 3.05,                         !- X,Y,Z Vertex 1 {m}
  27.69, 0, 0,                            !- X,Y,Z Vertex 2 {m}
  27.69, 18.46, 0,                        !- X,Y,Z Vertex 3 {m}
  27.69, 18.46, 3.05;                     !- X,Y,Z Vertex 4 {m}

OS:Schedule:Compact,
  {7fe8e201-d3fe-4086-9e0e-3d372817fe22}, !- Handle
  Water Equipment Hot Supply Temp Sched,  !- Name
  {76c789e5-e495-43a9-8900-cf1803d6d311}, !- Schedule Type Limits Name
  Through: 12/31,                         !- Field 1
  For: AllDays,                           !- Field 2
  Until: 24:00,                           !- Field 3
  43.3;                                   !- Field 4

OS:Surface,
  {df224c52-8177-4358-8529-33dc4108f111}, !- Handle
  Core_ZN_wall_south,                     !- Name
  Wall,                                   !- Surface Type
  ,                                       !- Construction Name
  {78bcd49a-52a5-4ef6-901b-8df80409492d}, !- Space Name
  Surface,                                !- Outside Boundary Condition
  {efe7bab6-3708-4d85-a4e1-00ce2595bd0a}, !- Outside Boundary Condition Object
  NoSun,                                  !- Sun Exposure
  NoWind,                                 !- Wind Exposure
  ,                                       !- View Factor to Ground
  ,                                       !- Number of Vertices
  5, 5, 3.05,                             !- X,Y,Z Vertex 1 {m}
  5, 5, 0,                                !- X,Y,Z Vertex 2 {m}
  22.69, 5, 0,                            !- X,Y,Z Vertex 3 {m}
  22.69, 5, 3.05;                         !- X,Y,Z Vertex 4 {m}

OS:Schedule:Compact,
  {308c2228-c549-49c8-b720-08e911c90fa0}, !- Handle
  MinOA_Sched,                            !- Name
  {40075cd1-9551-40ed-a485-cfe54704240b}, !- Schedule Type Limits Name
  Through: 12/31,                         !- Field 1
  For: Weekdays SummerDesignDay,          !- Field 2
  Until: 07:00,                           !- Field 3
  0.0,                                    !- Field 4
  Until: 22:00,                           !- Field 5
  1.0,                                    !- Field 6
  Until: 24:00,                           !- Field 7
  0.0,                                    !- Field 8
  For: Saturday WinterDesignDay,          !- Field 9
  Until: 07:00,                           !- Field 10
  0.0,                                    !- Field 11
  Until: 18:00,                           !- Field 12
  1.0,                                    !- Field 13
  Until: 24:00,                           !- Field 14
  0.0,                                    !- Field 15
  For: AllOtherDays,                      !- Field 16
  Until: 24:00,                           !- Field 17
  0.0;                                    !- Field 18

OS:Surface,
  {1990c494-aaef-496a-ad1a-ffbc4d7410ea}, !- Handle
  Perimeter_ZN_1_floor,                   !- Name
  Floor,                                  !- Surface Type
  ,                                       !- Construction Name
  {b6facaaa-d523-4905-85e8-2fe540604069}, !- Space Name
  Ground,                                 !- Outside Boundary Condition
  ,                                       !- Outside Boundary Condition Object
  NoSun,                                  !- Sun Exposure
  NoWind,                                 !- Wind Exposure
  ,                                       !- View Factor to Ground
  ,                                       !- Number of Vertices
  22.69, 5, 0,                            !- X,Y,Z Vertex 1 {m}
  27.69, 0, 0,                            !- X,Y,Z Vertex 2 {m}
  0, 0, 0,                                !- X,Y,Z Vertex 3 {m}
  5, 5, 0;                                !- X,Y,Z Vertex 4 {m}

OS:Connection,
  {28c8bc93-0b93-4058-a9be-b9a73e30a5f9}, !- Handle
  {7c4d9a66-2fe9-4557-afad-f6efd3542844}, !- Name
  ,                                       !- Source Object
  11,                                     !- Outlet Port
  ,                                       !- Target Object
  2;                                      !- Inlet Port

OS:Space,
  {b6facaaa-d523-4905-85e8-2fe540604069}, !- Handle
  Perimeter_ZN_1,                         !- Name
  ,                                       !- Space Type Name
  ,                                       !- Default Construction Set Name
  ,                                       !- Default Schedule Set Name
  0,                                      !- Direction of Relative North {deg}
  0,                                      !- X Origin {m}
  0,                                      !- Y Origin {m}
  0,                                      !- Z Origin {m}
  ,                                       !- Building Story Name
  ,                                       !- Thermal Zone Name
  Yes,                                    !- Part of Total Floor Area
  ;                                       !- Design Specification Outdoor Air Object Name

OS:SubSurface,
  {4c002bea-5562-4a0d-9c99-1e4b2e9bf228}, !- Handle
  Perimeter_ZN_4_wall_west_Window_3,      !- Name
  FixedWindow,                            !- Sub Surface Type
  ,                                       !- Construction Name
  {0e163f7e-89b5-4ae6-9e8c-65a39113872c}, !- Surface Name
  ,                                       !- Outside Boundary Condition Object
  ,                                       !- View Factor to Ground
  ,                                       !- Shading Control Name
  ,                                       !- Frame and Divider Name
  1,                                      !- Multiplier
  ,                                       !- Number of Vertices
  0, 7.84, 2.424,                         !- X,Y,Z Vertex 1 {m}
  0, 7.84, 0.9,                           !- X,Y,Z Vertex 2 {m}
  0, 6.01, 0.9,                           !- X,Y,Z Vertex 3 {m}
  0, 6.01, 2.424;                         !- X,Y,Z Vertex 4 {m}

OS:Surface,
  {0e163f7e-89b5-4ae6-9e8c-65a39113872c}, !- Handle
  Perimeter_ZN_4_wall_west,               !- Name
  Wall,                                   !- Surface Type
  ,                                       !- Construction Name
  {39132d6d-9985-4d36-a06e-7eb8109178f3}, !- Space Name
  Outdoors,                               !- Outside Boundary Condition
  ,                                       !- Outside Boundary Condition Object
  SunExposed,                             !- Sun Exposure
  WindExposed,                            !- Wind Exposure
  ,                                       !- View Factor to Ground
  ,                                       !- Number of Vertices
  0, 18.46, 3.05,                         !- X,Y,Z Vertex 1 {m}
  0, 18.46, 0,                            !- X,Y,Z Vertex 2 {m}
  0, 0, 0,                                !- X,Y,Z Vertex 3 {m}
  0, 0, 3.05;                             !- X,Y,Z Vertex 4 {m}

OS:SizingPeriod:DesignDay,
  {1d005d38-ab70-4544-a9a9-9bb50ed21e09}, !- Handle
  HOUSTON Ann Htg 99.6% Condns DB,        !- Name
  -2.4,                                   !- Maximum Dry-Bulb Temperature {C}
  0,                                      !- Daily Dry-Bulb Temperature Range {deltaC}
  -2.4,                                   !- Humidity Indicating Conditions at Maximum Dry-Bulb {BasedOnField A3}
  100929,                                 !- Barometric Pressure {Pa}
  2.7,                                    !- Wind Speed {m/s}
  0,                                      !- Wind Direction {deg}
  0,                                      !- Sky Clearness
  0,                                      !- Rain Indicator
  0,                                      !- Snow Indicator
  21,                                     !- Day of Month
  1,                                      !- Month
  WinterDesignDay,                        !- Day Type
  0,                                      !- Daylight Saving Time Indicator
  Wetbulb,                                !- Humidity Indicating Type
  ,                                       !- Humidity Indicating Day Schedule Name
  ,                                       !- Dry-Bulb Temperature Range Modifier Type
  ,                                       !- Dry-Bulb Temperature Range Modifier Schedule Name
  ASHRAEClearSky;                         !- Solar Model Indicator

OS:HeatBalanceAlgorithm,
  {cb607092-3dd8-4fae-9bd5-85b218a0aa7e}, !- Handle
  ConductionTransferFunction,             !- Algorithm
  200;                                    !- Surface Temperature Upper Limit {F}

OS:Schedule:Compact,
  {3091e2e3-4c7e-4f09-a595-5aa4f888b54e}, !- Handle
  WORK_EFF_SCH,                           !- Name
  {40075cd1-9551-40ed-a485-cfe54704240b}, !- Schedule Type Limits Name
  Through: 12/31,                         !- Field 1
  For: AllDays,                           !- Field 2
  Until: 24:00,                           !- Field 3