
OS:Version,
  {6f5e1b4d-3884-48ce-83d5-5581b5b68b55}, !- Handle
  1.1.0;                                  !- Version Identifier

OS:Schedule:Constant,
  {784a0e19-a4bd-4b89-a3d7-f4c27a9cff92}, !- Handle
  Always On Discrete,                     !- Name
  {bf844522-a54b-4f48-b341-996c336f13f4}, !- Schedule Type Limits Name
  1;                                      !- Value

OS:ScheduleTypeLimits,
  {bf844522-a54b-4f48-b341-996c336f13f4}, !- Handle
  Always On Discrete Limits,              !- Name
  0,                                      !- Lower Limit Value {BasedOnField A4}
  1,                                      !- Upper Limit Value {BasedOnField A4}
  Discrete,                               !- Numeric Type
  Availability;                           !- Unit Type

OS:Building,
  {6e223be2-9c2e-424d-bd2a-2836c6f7df41}, ! Handle
  Stand-alone Retail,                     ! Name
  ,                                       ! Building Type
  -0,                                     ! North Axis
  ,                                       ! Nominal Floor to Floor Height
  ,                                       ! Space Type Name
  ,                                       ! Default Construction Set Name
  ;                                       ! Default Schedule Set Name

OS:DefaultSubSurfaceConstructions,
  {732a4775-a7dc-4894-806f-d8d01a0c78cb}, ! Handle
  000_Interior_DefSubCons,                ! Name
  ,                                       ! Fixed Window Construction Name
  ,                                       ! Operable Window Construction Name
  ,                                       ! Door Construction Name
  ,                                       ! Glass Door Construction Name
  ,                                       ! Overhead Door Construction Name
  ,                                       ! Skylight Construction Name
  ,                                       ! Tubular Daylight Dome Construction Name
  ;                                       ! Tubular Daylight Diffuser Construction Name

OS:DefaultSubSurfaceConstructions,
  {a7b73476-0ded-4ed3-8101-c448cbd193c8}, ! Handle
  ASHRAE_189.1-2009_ClimateZone 5 (retail)_Exterior_DefSubCons, ! Name
  ,                                       ! Fixed Window Construction Name
  ,                                       ! Operable Window Construction Name
  ,                                       ! Door Construction Name
  ,                                       ! Glass Door Construction Name
  ,                                       ! Overhead Door Construction Name
  ,                                       ! Skylight Construction Name
  ,                                       ! Tubular Daylight Dome Construction Name
  ;                                       ! Tubular Daylight Diffuser Construction Name

OS:DefaultSurfaceConstructions,
  {548e7dd9-b8b2-4c99-9ea3-83984f0f0899}, ! Handle
  000_Ground_DefSurfCons,                 ! Name
  ,                                       ! Floor Construction Name
  ,                                       ! Wall Construction Name
  ;                                       ! Roof Ceiling Construction Name

OS:DefaultSurfaceConstructions,
  {a1bfba14-5206-4671-b13f-999fe10732ab}, ! Handle
  000_Interior_DefSurfCons,               ! Name
  ,                                       ! Floor Construction Name
  ,                                       ! Wall Construction Name
  ;                                       ! Roof Ceiling Construction Name

OS:DefaultSurfaceConstructions,
  {9139f371-f28e-4c07-a988-864f7f0f2202}, ! Handle
  ASHRAE_189.1-2009_ClimateZone 5 (retail)_Exterior_DefSurfCons, ! Name
  ,                                       ! Floor Construction Name
  ,                                       ! Wall Construction Name
  ;                                       ! Roof Ceiling Construction Name

OS:DesignSpecification:OutdoorAir,
  {13e60373-c682-424a-8de0-35a5333fe3be}, ! Handle
  Retail_Back_Space_Outdoor_Air,          ! Name
  Sum,                                    ! Outdoor Air Method
  0.0,                                    ! Outdoor Air Flow per Person
  0.000762000000003048,                   ! Outdoor Air Flow per Floor Area
  0,                                      ! Outdoor Air Flow Rate
  0,                                      ! Outdoor Air Flow Air Changes per Hour
  ;                                       ! Outdoor Air Flow Rate Fraction Schedule Name

OS:DesignSpecification:OutdoorAir,
  {fd29c1e6-5310-4121-9dea-80ee8794e166}, ! Handle
  Retail_Core_Outdoor_Air,                ! Name
  Sum,                                    ! Outdoor Air Method
  0.0,                                    ! Outdoor Air Flow per Person
  0.0015240000000061,                     ! Outdoor Air Flow per Floor Area
  0,                                      ! Outdoor Air Flow Rate
  0,                                      ! Outdoor Air Flow Air Changes per Hour
  ;                                       ! Outdoor Air Flow Rate Fraction Schedule Name

OS:DesignSpecification:OutdoorAir,
  {ed28f556-6a7f-4f93-b8a9-925c56d7fb6c}, ! Handle
  Retail_Entry_Outdoor_Air,               ! Name
  Sum,                                    ! Outdoor Air Method
  0.0,                                    ! Outdoor Air Flow per Person
  0.0015240000000061,                     ! Outdoor Air Flow per Floor Area
  0,                                      ! Outdoor Air Flow Rate
  0,                                      ! Outdoor Air Flow Air Changes per Hour
  ;                                       ! Outdoor Air Flow Rate Fraction Schedule Name

OS:DesignSpecification:OutdoorAir,
  {f396a872-4cb3-4122-ac78-bda3880fb6da}, ! Handle
  Retail_Point_of_Sale_Outdoor_Air,       ! Name
  Sum,                                    ! Outdoor Air Method
  0.0,                                    ! Outdoor Air Flow per Person
  0.0015240000000061,                     ! Outdoor Air Flow per Floor Area
  0,                                      ! Outdoor Air Flow Rate
  0,                                      ! Outdoor Air Flow Air Changes per Hour
  ;                                       ! Outdoor Air Flow Rate Fraction Schedule Name

OS:ElectricEquipment:Definition,
  {419251cc-c67c-4169-a556-fc93c8edf908}, ! Handle
  ASHRAE_189.1-2009_ClimateZone 1-3_Retail_Back_Space_ElecDef, ! Name
  Watts/Area,                             ! Design Level Calculation Method
  0,                                      ! Design Level
  2.3680613112601314,                     ! Watts per Space Floor Area
  ;                                       ! Watts per Person

OS:ElectricEquipment:Definition,
  {b3862cc1-c4db-40ff-ad82-b7237c234eae}, ! Handle
  ASHRAE_189.1-2009_ClimateZone 1-3_Retail_Core_ElecDef, ! Name
  Watts/Area,                             ! Design Level Calculation Method
  0,                                      ! Design Level
  2.3680613112601314,                     ! Watts per Space Floor Area
  ;                                       ! Watts per Person

OS:ElectricEquipment:Definition,
  {f8fb0e8e-6025-46e2-a116-fbe476968082}, ! Handle
  ASHRAE_189.1-2009_ClimateZone 1-3_Retail_Entry_ElecDef, ! Name
  Watts/Area,                             ! Design Level Calculation Method
  0,                                      ! Design Level
  5.8125141276385044,                     ! Watts per Space Floor Area
  ;                                       ! Watts per Person

OS:ElectricEquipment:Definition,
  {bb21dc77-b458-48d1-abb3-73b752161301}, ! Handle
  ASHRAE_189.1-2009_ClimateZone 1-3_Retail_Point_of_Sale_ElecDef, ! Name
  Watts/Area,                             ! Design Level Calculation Method
  0,                                      ! Design Level
  15.607676824214503,                     ! Watts per Space Floor Area
  ;                                       ! Watts per Person

OS:ElectricEquipment:Definition,
  {b8d1d363-7c3f-408f-b3ba-e660c44181b3}, ! Handle
  ASHRAE_189.1-2009_ClimateZone 4-8_Retail_Back_Space_ElecDef, ! Name
  Watts/Area,                             ! Design Level Calculation Method
  0,                                      ! Design Level
  2.3680613112601314,                     ! Watts per Space Floor Area
  ;                                       ! Watts per Person

OS:ElectricEquipment:Definition,
  {b9eb50eb-739c-4a59-a88d-67ca677be659}, ! Handle
  ASHRAE_189.1-2009_ClimateZone 4-8_Retail_Core_ElecDef, ! Name
  Watts/Area,                             ! Design Level Calculation Method
  0,                                      ! Design Level
  2.3680613112601314,                     ! Watts per Space Floor Area
  ;                                       ! Watts per Person

OS:ElectricEquipment:Definition,
  {1aeef29c-476d-4bd1-a9da-42268fd6b568}, ! Handle
  ASHRAE_189.1-2009_ClimateZone 4-8_Retail_Point_of_Sale_ElecDef, ! Name
  Watts/Area,                             ! Design Level Calculation Method
  0,                                      ! Design Level
  15.607676824214503,                     ! Watts per Space Floor Area
  ;                                       ! Watts per Person

OS:ElectricEquipment:Definition,
  {893cf00d-fb70-4a8f-8a5e-4678f2a8a650}, ! Handle
  ASHRAE_90.1-2004_Retail_Back_Space_ElecDef, ! Name
  Watts/Area,                             ! Design Level Calculation Method
  0,                                      ! Design Level
  8.0729362883868117,                     ! Watts per Space Floor Area
  ;                                       ! Watts per Person

OS:ElectricEquipment:Definition,
  {705e5a1b-9936-4e93-8cac-f627104a0208}, ! Handle
  ASHRAE_90.1-2004_Retail_Core_ElecDef,   ! Name
  Watts/Area,                             ! Design Level Calculation Method
  0,                                      ! Design Level
  3.2291745153547247,                     ! Watts per Space Floor Area
  ;                                       ! Watts per Person

OS:ElectricEquipment:Definition,
  {abc55be5-11e9-44b7-80b8-03bca4fc171c}, ! Handle
  ASHRAE_90.1-2004_Retail_Point_of_Sale_ElecDef, ! Name
  Watts/Area,                             ! Design Level Calculation Method
  0,                                      ! Design Level
  21.527830102364831,                     ! Watts per Space Floor Area
  ;                                       ! Watts per Person

OS:ElectricEquipment:Definition,
  {c0cfa5c1-6eb0-430e-9043-0a49903c9ffc}, ! Handle
  CBECS_1980-2004_Retail_Back_Space_ElecDef, ! Name
  Watts/Area,                             ! Design Level Calculation Method
  0,                                      ! Design Level
  8.0729362883868117,                     ! Watts per Space Floor Area
  ;                                       ! Watts per Person

OS:ElectricEquipment:Definition,
  {1924a2be-f08b-40a1-8b83-4f710e2eca14}, ! Handle
  CBECS_1980-2004_Retail_Core_ElecDef,    ! Name
  Watts/Area,                             ! Design Level Calculation Method
  0,                                      ! Design Level
  3.2291745153547247,                     ! Watts per Space Floor Area
  ;                                       ! Watts per Person

OS:ElectricEquipment:Definition,
  {ce3383c9-54b1-4cf6-8c25-9de3c0dca1cd}, ! Handle
  CBECS_1980-2004_Retail_Point_of_Sale_ElecDef, ! Name
  Watts/Area,                             ! Design Level Calculation Method
  0,                                      ! Design Level
  21.527830102364831,                     ! Watts per Space Floor Area
  ;                                       ! Watts per Person

OS:ElectricEquipment:Definition,
  {a6c3093e-ac99-4a03-b922-6f1ce30e6c38}, ! Handle
  CBECS_Before-1980_Retail_Back_Space_ElecDef, ! Name
  Watts/Area,                             ! Design Level Calculation Method
  0,                                      ! Design Level
  8.0729362883868117,                     ! Watts per Space Floor Area
  ;                                       ! Watts per Person

OS:ElectricEquipment:Definition,
  {78097839-4789-41bd-858a-05e620c500f6}, ! Handle
  CBECS_Before-1980_Retail_Core_ElecDef,  ! Name
  Watts/Area,                             ! Design Level Calculation Method
  0,                                      ! Design Level
  3.2291745153547247,                     ! Watts per Space Floor Area
  ;                                       ! Watts per Person

OS:ElectricEquipment:Definition,
  {76b36b23-146d-420b-82bc-08423815f70b}, ! Handle
  CBECS_Before-1980_Retail_Point_of_Sale_ElecDef, ! Name
  Watts/Area,                             ! Design Level Calculation Method
  0,                                      ! Design Level
  21.527830102364831,                     ! Watts per Space Floor Area
  ;                                       ! Watts per Person

OS:Facility,
  {077b7c73-de17-4c04-a63a-20abe9d6c7cc}; ! Handle

OS:Lights:Definition,
  {1f5f324a-73cd-4f3c-98b4-bab9a15b7a10}, ! Handle
  ASHRAE_189.1-2009_ClimateZone 1-3_Retail_Back_Space_LightsDef, ! Name
  Watts/Area,                             ! Design Level Calculation Method
  0,                                      ! Lighting Level
  18.298655587010106,                     ! Watts per Space Floor Area
  ;                                       ! Watts per Person

OS:Lights:Definition,
  {eb2b5054-949d-44a9-8202-5e2336060e95}, ! Handle
  ASHRAE_189.1-2009_ClimateZone 1-3_Retail_Core_LightsDef, ! Name
  Watts/Area,                             ! Design Level Calculation Method
  0,                                      ! Lighting Level
  18.298655587010106,                     ! Watts per Space Floor Area
  ;                                       ! Watts per Person

OS:Lights:Definition,
  {3cf00f34-a0a8-42b0-9f5f-2112582ea6d5}, ! Handle
  ASHRAE_189.1-2009_ClimateZone 1-3_Retail_Entry_LightsDef, ! Name
  Watts/Area,                             ! Design Level Calculation Method
  0,                                      ! Lighting Level
  18.298655587010106,                     ! Watts per Space Floor Area
  ;                                       ! Watts per Person

OS:Lights:Definition,
  {f314e113-ffc3-49dd-a5ca-9ea4778ca7b8}, ! Handle
  ASHRAE_189.1-2009_ClimateZone 1-3_Retail_Point_of_Sale_LightsDef, ! Name
  Watts/Area,                             ! Design Level Calculation Method
  0,                                      ! Lighting Level
  18.298655587010106,                     ! Watts per Space Floor Area
  ;                                       ! Watts per Person

OS:Lights:Definition,
  {8f363c44-fc88-468e-a66b-ffe7d08fe1c9}, ! Handle
  ASHRAE_189.1-2009_ClimateZone 4-8_Retail_Back_Space_LightsDef, ! Name
  Watts/Area,                             ! Design Level Calculation Method
  0,                                      ! Lighting Level
  18.298655587010106,                     ! Watts per Space Floor Area
  ;                                       ! Watts per Person

OS:Lights:Definition,
  {fc151011-e414-4101-80ca-b0bdfefea875}, ! Handle
  ASHRAE_189.1-2009_ClimateZone 4-8_Retail_Core_LightsDef, ! Name
  Watts/Area,                             ! Design Level Calculation Method
  0,                                      ! Lighting Level
  18.298655587010106,                     ! Watts per Space Floor Area
  ;                                       ! Watts per Person

OS:Lights:Definition,
  {965e4ce8-b77e-4af8-9b87-c925ba1a7983}, ! Handle
  ASHRAE_189.1-2009_ClimateZone 4-8_Retail_Point_of_Sale_LightsDef, ! Name
  Watts/Area,                             ! Design Level Calculation Method
  0,                                      ! Lighting Level
  18.298655587010106,                     ! Watts per Space Floor Area
  ;                                       ! Watts per Person

OS:Lights:Definition,
  {4a6a88d4-229a-4d23-b682-9bd556ea591a}, ! Handle
  ASHRAE_90.1-2004_Retail_Back_Space_LightsDef, ! Name
  Watts/Area,                             ! Design Level Calculation Method
  0,                                      ! Lighting Level
  8.6111320409459324,                     ! Watts per Space Floor Area
  ;                                       ! Watts per Person

OS:Lights:Definition,
  {a9bedc80-9a4e-4171-8b0d-ce556680925a}, ! Handle
  ASHRAE_90.1-2004_Retail_Core_LightsDef, ! Name
  Watts/Area,                             ! Design Level Calculation Method
  0,                                      ! Lighting Level
  18.298655587010106,                     ! Watts per Space Floor Area
  ;                                       ! Watts per Person

OS:Lights:Definition,
  {64fb56cc-d385-4d1d-a1c5-3c234ed04395}, ! Handle
  ASHRAE_90.1-2004_Retail_Entry_LightsDef, ! Name
  Watts/Area,                             ! Design Level Calculation Method
  0,                                      ! Lighting Level
  18.298655587010106,                     ! Watts per Space Floor Area
  ;                                       ! Watts per Person

OS:Lights:Definition,
  {cf1c62c0-5b36-4a0f-9785-1186ee4c82ba}, ! Handle
  ASHRAE_90.1-2004_Retail_Point_of_Sale_LightsDef, ! Name
  Watts/Area,                             ! Design Level Calculation Method
  0,                                      ! Lighting Level
  18.298655587010106,                     ! Watts per Space Floor Area
  ;                                       ! Watts per Person

OS:Lights:Definition,
  {04f21240-dbba-44e0-9712-f9772dc6c79b}, ! Handle
  CBECS_1980-2004_Retail_Back_Space_LightsDef, ! Name
  Watts/Area,                             ! Design Level Calculation Method
  0,                                      ! Lighting Level
  12.593780609883426,                     ! Watts per Space Floor Area
  ;                                       ! Watts per Person

OS:Lights:Definition,
  {ac3e3c14-ccb1-4eb4-8bb8-225b746b0c0b}, ! Handle
  CBECS_1980-2004_Retail_Core_LightsDef,  ! Name
  Watts/Area,                             ! Design Level Calculation Method
  0,                                      ! Lighting Level
  36.274393722484739,                     ! Watts per Space Floor Area
  ;                                       ! Watts per Person

OS:Lights:Definition,
  {844dfa53-82c4-43ff-bf82-c806d68445d7}, ! Handle
  CBECS_1980-2004_Retail_Entry_LightsDef, ! Name
  Watts/Area,                             ! Design Level Calculation Method
  0,                                      ! Lighting Level
  36.274393722484739,                     ! Watts per Space Floor Area
  ;                                       ! Watts per Person

OS:Lights:Definition,
  {8b74568a-56dd-4360-a410-43513d2387d5}, ! Handle
  CBECS_1980-2004_Retail_Point_of_Sale_LightsDef, ! Name
  Watts/Area,                             ! Design Level Calculation Method
  0,                                      ! Lighting Level
  36.274393722484739,                     ! Watts per Space Floor Area
  ;                                       ! Watts per Person

OS:Lights:Definition,
  {1c792e36-1481-4ee5-8b52-df03bdd70a13}, ! Handle
  CBECS_Before-1980_Retail_Back_Space_LightsDef, ! Name
  Watts/Area,                             ! Design Level Calculation Method
  0,                                      ! Lighting Level
  8.28821458941046,                       ! Watts per Space Floor Area
  ;                                       ! Watts per Person

OS:Lights:Definition,
  {88944d15-947b-4047-835c-f1e63f418e55}, ! Handle
  CBECS_Before-1980_Retail_Core_LightsDef, ! Name
  Watts/Area,                             ! Design Level Calculation Method
  0,                                      ! Lighting Level
  54.142492707447552,                     ! Watts per Space Floor Area
  ;                                       ! Watts per Person

OS:Lights:Definition,
  {674a474f-788e-4f59-beb9-8aa92b368a58}, ! Handle
  CBECS_Before-1980_Retail_Entry_LightsDef, ! Name
  Watts/Area,                             ! Design Level Calculation Method
  0,                                      ! Lighting Level
  54.142492707447552,                     ! Watts per Space Floor Area
  ;                                       ! Watts per Person

OS:Lights:Definition,
  {0d22e0f0-dbf7-49c3-b025-09699750f29b}, ! Handle
  CBECS_Before-1980_Retail_Point_of_Sale_LightsDef, ! Name
  Watts/Area,                             ! Design Level Calculation Method
  0,                                      ! Lighting Level
  54.142492707447552,                     ! Watts per Space Floor Area
  ;                                       ! Watts per Person

OS:Material:AirGap,
  {b2121ca8-9142-45e4-9758-0a42101e346a}, ! Handle
  000_F04 Wall air space resistance,      ! Name
  0.14999999999999999;                    ! Thermal Resistance

OS:Material:AirGap,
  {517db8f9-3c8e-41c4-a2d8-440fcebf1940}, ! Handle
  000_F05 Ceiling air space resistance,   ! Name
  0.17999999999999999;                    ! Thermal Resistance

OS:People:Definition,
  {e9bf3f3b-5ed8-4347-a0ad-8834276edb65}, ! Handle
  Retail_Back_Space_PeopDef,              ! Name
  People/Area,                            ! Number of People Calculation Method
  0,                                      ! Number of People
  0.035843837120437441,                   ! People per Space Floor Area
  ,                                       ! Space Floor Area per Person
  0.3;                                    ! Fraction Radiant

OS:People:Definition,
  {1111d9eb-3621-426e-afc4-66c67ac72e8d}, ! Handle
  Retail_Core_PeopDef,                    ! Name
  People/Area,                            ! Number of People Calculation Method
  0,                                      ! Number of People
  0.16145872576773623,                    ! People per Space Floor Area
  ,                                       ! Space Floor Area per Person
  0.3;                                    ! Fraction Radiant

OS:People:Definition,
  {a52382ff-780d-4ae8-8c62-7bcd925671ee}, ! Handle
  Retail_Point_of_Sale_PeopDef,           ! Name
  People/Area,                            ! Number of People Calculation Method
  0,                                      ! Number of People
  0.16145872576773623,                    ! People per Space Floor Area
  ,                                       ! Space Floor Area per Person
  0.3;                                    ! Fraction Radiant

OS:Rendering:Color,
  {914ab1b9-61a8-4509-8540-7213d635e5b2}, ! Handle
  000_AtticRoof_ClimateZone 1-8_Color,    ! Name
  198.9,                                  ! Rendering Red Value
  0.0,                                    ! Rendering Green Value
  131.274;                                ! Rendering Blue Value

OS:Rendering:Color,
  {6d52311a-ad50-4f6f-a907-7cd566abfce3}, ! Handle
  000_ExtSlabCarpet_4in_ClimateZone 1-8_Color, ! Name
  198.9,                                  ! Rendering Red Value
  0.0,                                    ! Rendering Green Value
  0.0;                                    ! Rendering Blue Value

OS:Rendering:Color,
  {5274ab04-242e-4c44-a8a6-584cae1cae82}, ! Handle
  000_ExtSlabCarpet_8in_ClimateZone 1-8_Color, ! Name
  147.9,                                  ! Rendering Red Value
  0.0,                                    ! Rendering Green Value
  0.0;                                    ! Rendering Blue Value

OS:Rendering:Color,
  {7d7dbe6f-6a24-4c0b-9eb5-9a0a702f9c3d}, ! Handle
  000_ExtSlab_4in_ClimateZone 1-8_Color,  ! Name
  198.9,                                  ! Rendering Red Value
  0.0,                                    ! Rendering Green Value
  0.0;                                    ! Rendering Blue Value

OS:Rendering:Color,
  {adc94672-4079-46a8-bc7e-f6e2072e7b27}, ! Handle
  000_ExtSlab_8in_ClimateZone 1-8_Color,  ! Name
  147.9,                                  ! Rendering Red Value
  0.0,                                    ! Rendering Green Value
  0.0;                                    ! Rendering Blue Value

OS:Rendering:Color,
  {b5ce544e-b195-45a8-bf7a-db515d97a8aa}, ! Handle
  000_Exterior Door_Color,                ! Name
  124.3125,                               ! Rendering Red Value
  74.5875,                                ! Rendering Green Value
  89.505;                                 ! Rendering Blue Value

OS:Rendering:Color,
  {ef8a8a7d-7f1e-466d-ae60-d3631a35c436}, ! Handle
  000_Exterior Floor_Color,               ! Name
  255.0,                                  ! Rendering Red Value
  40.8,                                   ! Rendering Green Value
  40.7999999999998;                       ! Rendering Blue Value

OS:Rendering:Color,
  {1f1e1318-9e86-44a1-9080-9c64fb7e5ec3}, ! Handle
  000_Exterior Roof_Color,                ! Name
  255.0,                                  ! Rendering Red Value
  0.0,                                    ! Rendering Green Value
  0.0;                                    ! Rendering Blue Value

OS:Rendering:Color,
  {013f2fa0-699e-493c-a5d0-b8b337f217c8}, ! Handle
  000_Exterior Wall_Color,                ! Name
  142.8,                                  ! Rendering Red Value
  201.144,                                ! Rendering Green Value
  255.0;                                  ! Rendering Blue Value

OS:Rendering:Color,
  {319a5fbf-9f61-48c8-9177-22d36771a0af}, ! Handle
  000_Exterior Window_Color,              ! Name
  198.9,                                  ! Rendering Red Value
  0.0,                                    ! Rendering Green Value
  59.6699999999999;                       ! Rendering Blue Value

OS:Rendering:Color,
  {da876adf-de55-4ce1-ad17-36307c0c6821}, ! Handle
  000_Interior Ceiling_Color,             ! Name
  219.096,                                ! Rendering Red Value
  142.8,                                  ! Rendering Green Value
  255.0;                                  ! Rendering Blue Value

OS:Rendering:Color,
  {419abe5f-6a1a-4be7-96ad-eac9ba5374d2}, ! Handle
  000_Interior Door_Color,                ! Name
  168.606,                                ! Rendering Red Value
  255.0,                                  ! Rendering Green Value
  142.8;                                  ! Rendering Blue Value

OS:Rendering:Color,
  {6f501232-3d8e-487f-ae68-17b8368dd5d7}, ! Handle
  000_Interior Floor_Color,               ! Name
  255.0,                                  ! Rendering Red Value
  142.8,                                  ! Rendering Green Value
  142.8;                                  ! Rendering Blue Value

OS:Rendering:Color,
  {0666327f-2740-40cc-8818-02b0b33c61e4}, ! Handle
  000_Interior Partition_Color,           ! Name
  165.24,                                 ! Rendering Red Value
  142.8,                                  ! Rendering Green Value
  255.0;                                  ! Rendering Blue Value

OS:Rendering:Color,
  {1b66db6f-2f18-41f7-99eb-7e33712f8a70}, ! Handle
  000_Interior Wall_Color,                ! Name
  142.8,                                  ! Rendering Red Value
  201.144,                                ! Rendering Green Value
  255.0;                                  ! Rendering Blue Value

OS:Rendering:Color,
  {dc857522-da7d-4ba8-962d-2ade0d290f06}, ! Handle
  000_Interior Window_Color,              ! Name
  235.926,                                ! Rendering Red Value
  255.0,                                  ! Rendering Green Value
  142.8;                                  ! Rendering Blue Value

OS:Rendering:Color,
  {9de9bea9-3020-442b-9054-0c2e754e3325}, ! Handle
  ASHRAE_189.1-2009_AtticFloor_ClimateZone 1-8_Color, ! Name
  183.9825,                               ! Rendering Red Value
  14.9175,                                ! Rendering Green Value
  126.5004;                               ! Rendering Blue Value

OS:Rendering:Color,
  {390ac56f-83de-42ce-8b0f-fa96c446f7f9}, ! Handle
  ASHRAE_189.1-2009_ClimateZone 1-3_Retail_Back_Space_Color, ! Name
  120.36,                                 ! Rendering Red Value
  166.872,                                ! Rendering Green Value
  236.64;                                 ! Rendering Blue Value

OS:Rendering:Color,
  {7b798336-5bf5-4d1d-81d0-6528db497324}, ! Handle
  ASHRAE_189.1-2009_ClimateZone 1-3_Retail_Core_Color, ! Name
  176.256,                                ! Rendering Red Value
  230.52,                                 ! Rendering Green Value
  75.48;                                  ! Rendering Blue Value

OS:Rendering:Color,
  {eee1d360-c5e6-4869-8783-0579abe23bcd}, ! Handle
  ASHRAE_189.1-2009_ClimateZone 1-3_Retail_Entry_Color, ! Name
  176.256,                                ! Rendering Red Value
  230.52,                                 ! Rendering Green Value
  75.48;                                  ! Rendering Blue Value

OS:Rendering:Color,
  {0f4117d1-b7a9-4c93-9770-4af14f45a0b8}, ! Handle
  ASHRAE_189.1-2009_ClimateZone 1-3_Retail_Point_of_Sale_Color, ! Name
  176.256,                                ! Rendering Red Value
  230.52,                                 ! Rendering Green Value
  75.48;                                  ! Rendering Blue Value

OS:Rendering:Color,
  {d3a25a13-ff33-4239-b1c4-bdae6e704dd1}, ! Handle
  ASHRAE_189.1-2009_ClimateZone 4-8_Retail_Back_Space_Color, ! Name
  120.36,                                 ! Rendering Red Value
  166.872,                                ! Rendering Green Value
  236.64;                                 ! Rendering Blue Value

OS:Rendering:Color,
  {12d353ef-9bc2-460d-9bc6-fd5772fd9386}, ! Handle
  ASHRAE_189.1-2009_ClimateZone 4-8_Retail_Core_Color, ! Name
  176.256,                                ! Rendering Red Value
  230.52,                                 ! Rendering Green Value
  75.48;                                  ! Rendering Blue Value

OS:Rendering:Color,
  {428b1fce-da88-46c3-8449-4e68124b3730}, ! Handle
  ASHRAE_189.1-2009_ClimateZone 4-8_Retail_Point_of_Sale_Color, ! Name
  176.256,                                ! Rendering Red Value
  230.52,                                 ! Rendering Green Value
  75.48;                                  ! Rendering Blue Value

OS:Rendering:Color,
  {545740ee-d5d8-4aec-a3b8-00a84b2097b0}, ! Handle