
OS:Version,
  {61ba652c-fdd3-4ee9-917d-b528fbfdc47c}, !- Handle
  1.1.0;                                  !- Version Identifier

OS:Schedule:Constant,
  {e3085ac2-d802-4def-b499-b3e1f05643e4}, !- Handle
  Always On Discrete,                     !- Name
  {114b5e93-67da-401e-9b41-350da16c273e}, !- Schedule Type Limits Name
  1;                                      !- Value

OS:ScheduleTypeLimits,
  {114b5e93-67da-401e-9b41-350da16c273e}, !- Handle
  Always On Discrete Limits,              !- Name
  0,                                      !- Lower Limit Value {BasedOnField A4}
  1,                                      !- Upper Limit Value {BasedOnField A4}
  Discrete,                               !- Numeric Type
  Availability;                           !- Unit Type

OS:Building,
  {08678ddd-175a-469b-9626-2f02c40b6916}, ! Handle
  Building 362 - Archetype 5C - Fitness and Recreation, ! Name
  ,                                       ! Building Type
  -15,                                    ! North Axis
  ,                                       ! Nominal Floor to Floor Height
  {625bc770-27d8-4340-b658-025a3061bb74}, ! Space Type Name
  ,                                       ! Default Construction Set Name
  {911db665-b3f0-419d-ae15-b32587d26c9b}; ! Default Schedule Set Name

OS:Construction,
  {b09a8a1c-d2ef-47c1-87d1-ebed9781986c}, ! Handle
  000_Exterior Door,                      ! Name
  {336262c3-ed6f-4bd5-bd5b-d932449932e2}, ! Surface Rendering Name
  {ab2b6805-18a2-4e07-a2cb-4572d04f6890}, ! Layer 1
  {fe097386-a229-4196-90e2-4a422c321f26}; ! Layer 2

OS:Construction,
  {08feaea2-8612-4c76-866f-2cac796b8e3b}, ! Handle
  MNECB_ExtWindow,                        ! Name
  {7d5e102f-b841-4e86-9bb4-16a497fe3948}, ! Surface Rendering Name
  {242419f8-6c69-45da-b332-d120b4ef4784}; ! Layer 1

OS:WindowMaterial:SimpleGlazingSystem,
  {242419f8-6c69-45da-b332-d120b4ef4784}, !- Handle
  MNECB Ref Simple Glazing System,        !- Name
  2.8,                                    !- U-Factor {W/m2-K}
  0.64,                                   !- Solar Heat Gain Coefficient
  0.21;                                   !- Visible Transmittance

OS:Rendering:Color,
  {7d5e102f-b841-4e86-9bb4-16a497fe3948}, ! Handle
  ASHRAE_90.1-2004_ExtWindow_ClimateZone_alt-res 4-6_Color, ! Name
  67.5749999999999,                       ! Rendering Red Value
  228.225,                                ! Rendering Green Value
  208.947;                                ! Rendering Blue Value

OS:Rendering:Color,
  {f16d79c6-23ca-4509-a014-2175d9ec5914}, ! Handle
  Air_Wall_Color,                         ! Name
  255,                                    ! Rendering Red Value
  69,                                     ! Rendering Green Value
  0,                                      ! Rendering Blue Value
  ;                                       ! Rendering Alpha Value

OS:Rendering:Color,
  {336262c3-ed6f-4bd5-bd5b-d932449932e2}, ! Handle
  000_Exterior Door_Color,                ! Name
  124.3125,                               ! Rendering Red Value
  74.5875,                                ! Rendering Green Value
  89.505;                                 ! Rendering Blue Value

OS:Material,
  {ab2b6805-18a2-4e07-a2cb-4572d04f6890}, ! Handle
  000_F08 Metal surface,                  ! Name
  Smooth,                                 ! Roughness
  0.00080000000000000004,                 ! Thickness
  45.280000000000001,                     ! Conductivity
  7824,                                   ! Density
  500;                                    ! Specific Heat

OS:Material:AirWall,
  {1fe29fd1-e434-43da-9987-3e0281921913}, ! Handle
  OS:Material:AirWall 1;                  ! Name

OS:Material,
  {fe097386-a229-4196-90e2-4a422c321f26}, ! Handle
  000_I01 25mm insulation board,          ! Name
  MediumRough,                            ! Roughness
  0.025399999999999999,                   ! Thickness
  0.029999999999999999,                   ! Conductivity
  43,                                     ! Density
  1210;                                   ! Specific Heat

OS:Construction,
  {305c1cce-364a-4113-af8d-9f7f6db58322}, ! Handle
  000_Interior Ceiling,                   ! Name
  {dc72bc9f-18f7-440c-b7c2-fe001cfd1243}, ! Surface Rendering Name
  {2be9922c-b8c7-43fc-b6fb-130ba70b23ad}, ! Layer 1
  {e5ef4582-1ed4-40f7-90f7-b948835c4680}, ! Layer 2
  {1f0b94e3-96e8-4759-9166-250e63a9c9c0}; ! Layer 3

OS:Construction,
  {07092fd3-9719-4a3a-851a-61e694c7b2e6}, ! Handle
  000_Interior Floor,                     ! Name
  {b20c2d12-e32a-40e0-a31d-71c02d72c4cc}, ! Surface Rendering Name
  {1f0b94e3-96e8-4759-9166-250e63a9c9c0}, ! Layer 1
  {e5ef4582-1ed4-40f7-90f7-b948835c4680}, ! Layer 2
  {2be9922c-b8c7-43fc-b6fb-130ba70b23ad}; ! Layer 3

OS:Construction,
  {e6ff48b6-cff2-4bb8-aed2-df3c527afd49}, ! Handle
  000_Interior Wall,                      ! Name
  {fc7442fe-436e-490a-809c-10571598bdd3}, ! Surface Rendering Name
  {4fe86c6d-f73e-4893-b73f-ddf808c38106}, ! Layer 1
  {efc63ac2-25cf-4878-8100-f1e2d1f7e2f5}, ! Layer 2
  {4fe86c6d-f73e-4893-b73f-ddf808c38106}; ! Layer 3

OS:ScheduleTypeLimits,
  {2f16a3ff-0402-442a-9cf7-f81e926463f0}, ! Handle
  TEMPERATURE,                            ! Name
  -60,                                    ! Lower Limit Value {BasedOnField A4}
  200,                                    ! Upper Limit Value {BasedOnField A4}
  CONTINUOUS,                             ! Numeric Type
  Temperature;                            ! Unit Type

OS:ScheduleTypeLimits,
  {9e11a0f2-c048-4496-8b91-90bb15eb0e86}, ! Handle
  FRACTION 73,                            ! Name
  0,                                      ! Lower Limit Value {BasedOnField A4}
  1,                                      ! Upper Limit Value {BasedOnField A4}
  CONTINUOUS,                             ! Numeric Type
  Dimensionless;                          ! Unit Type

OS:ScheduleTypeLimits,
  {8e327882-9283-4821-a03e-f4e80ac80ba2}, ! Handle
  ON/OFF 73,                              ! Name
  0,                                      ! Lower Limit Value {BasedOnField A4}
  1,                                      ! Upper Limit Value {BasedOnField A4}
  DISCRETE,                               ! Numeric Type
  Dimensionless;                          ! Unit Type

OS:DefaultScheduleSet,
  {8a81b2f4-b374-4017-b769-325c976f1555}, ! Handle
  NECB-A,                                 ! Name
  {6e356d32-26b3-472f-b14d-72eec40ab293}, ! Hours of Operation Schedule Name
  {0de1f806-11b6-452b-9ca2-3acd3df0229e}, ! Number of People Schedule Name
  ,                                       ! People Activity Level Schedule Name
  {eb37e738-0107-41d9-b561-66999156d864}, ! Lighting Schedule Name
  {f7ed7642-98f4-44a6-b141-ac8c49a325f6}, ! Electric Equipment Schedule Name
  ,                                       ! Gas Equipment Schedule Name
  {a2c7a81f-7fc1-4b23-8c80-5b0f2903e1b5}, ! Hot Water Equipment Schedule Name
  ,                                       ! Infiltration Schedule Name
  ,                                       ! Steam Equipment Schedule Name
  {87c029bd-c907-4381-beb3-4e3e3f432fda}; ! Other Equipment Schedule Name

OS:ScheduleTypeLimits,
  {9a0cc8c6-8226-4b3b-8297-643427785726}, ! Handle
  TEMPERATURE 1,                          ! Name
  -60,                                    ! Lower Limit Value {BasedOnField A4}
  200,                                    ! Upper Limit Value {BasedOnField A4}
  CONTINUOUS,                             ! Numeric Type
  Temperature;                            ! Unit Type

OS:ScheduleTypeLimits,
  {00e16ec5-d2a8-43bb-b89c-c1028b7b04d0}, ! Handle
  FRACTION 1,                             ! Name
  0,                                      ! Lower Limit Value {BasedOnField A4}
  1,                                      ! Upper Limit Value {BasedOnField A4}
  CONTINUOUS,                             ! Numeric Type
  Dimensionless;                          ! Unit Type

OS:ScheduleTypeLimits,
  {8ee09077-0490-4632-b9fa-8f6fca11bd4a}, ! Handle
  ON/OFF 1,                               ! Name
  0,                                      ! Lower Limit Value {BasedOnField A4}
  1,                                      ! Upper Limit Value {BasedOnField A4}
  DISCRETE,                               ! Numeric Type
  Dimensionless;                          ! Unit Type

OS:Schedule:Ruleset,
  {0de1f806-11b6-452b-9ca2-3acd3df0229e}, ! Handle
  NECB-A-Occ,                             ! Name
  {0cf61371-72f1-4920-b268-ba1720395304}, ! Schedule Type Limits Name
  {03f2ac1d-a8c3-4e95-a478-7feb9a61c88d}; ! Default Day Schedule Name

OS:Schedule:Day,
  {03f2ac1d-a8c3-4e95-a478-7feb9a61c88d}, ! Handle
  Schedule Day 1,                         ! Name
  {0cf61371-72f1-4920-b268-ba1720395304}, ! Schedule Type Limits Name
  ,                                       ! Interpolate to Timestep
  24,                                     ! Hour 1
  0,                                      ! Minute 1
  0;                                      ! Value Until Time 1

OS:Schedule:Day,
  {a9da951d-6704-4a0a-90b8-791bed31dae8}, ! Handle
  wkdNECB-A-Occ,                          ! Name
  {9e11a0f2-c048-4496-8b91-90bb15eb0e86}, ! Schedule Type Limits Name
  ,                                       ! Interpolate to Timestep
  1,                                      ! Hour 1
  0,                                      ! Minute 1
  0,                                      ! Value Until Time 1
  2,                                      ! Hour 2
  0,                                      ! Minute 2
  0,                                      ! Value Until Time 2
  3,                                      ! Hour 3
  0,                                      ! Minute 3
  0,                                      ! Value Until Time 3
  4,                                      ! Hour 4
  0,                                      ! Minute 4
  0,                                      ! Value Until Time 4
  5,                                      ! Hour 5
  0,                                      ! Minute 5
  0,                                      ! Value Until Time 5
  6,                                      ! Hour 6
  0,                                      ! Minute 6
  0,                                      ! Value Until Time 6
  7,                                      ! Hour 7
  0,                                      ! Minute 7
  0,                                      ! Value Until Time 7
  8,                                      ! Hour 8
  0,                                      ! Minute 8
  0.1,                                    ! Value Until Time 8
  9,                                      ! Hour 9
  0,                                      ! Minute 9
  0.7,                                    ! Value Until Time 9
  10,                                     ! Hour 10
  0,                                      ! Minute 10
  0.9,                                    ! Value Until Time 10
  11,                                     ! Hour 11
  0,                                      ! Minute 11
  0.9,                                    ! Value Until Time 11
  12,                                     ! Hour 12
  0,                                      ! Minute 12
  0.9,                                    ! Value Until Time 12
  13,                                     ! Hour 13
  0,                                      ! Minute 13
  0.5,                                    ! Value Until Time 13
  14,                                     ! Hour 14
  0,                                      ! Minute 14
  0.5,                                    ! Value Until Time 14
  15,                                     ! Hour 15
  0,                                      ! Minute 15
  0.9,                                    ! Value Until Time 15
  16,                                     ! Hour 16
  0,                                      ! Minute 16
  0.9,                                    ! Value Until Time 16
  17,                                     ! Hour 17
  0,                                      ! Minute 17
  0.9,                                    ! Value Until Time 17
  18,                                     ! Hour 18
  0,                                      ! Minute 18
  0.7,                                    ! Value Until Time 18
  19,                                     ! Hour 19
  0,                                      ! Minute 19
  0.3,                                    ! Value Until Time 19
  20,                                     ! Hour 20
  0,                                      ! Minute 20
  0.1,                                    ! Value Until Time 20
  21,                                     ! Hour 21
  0,                                      ! Minute 21
  0.1,                                    ! Value Until Time 21
  22,                                     ! Hour 22
  0,                                      ! Minute 22
  0.1,                                    ! Value Until Time 22
  23,                                     ! Hour 23
  0,                                      ! Minute 23
  0.1,                                    ! Value Until Time 23
  24,                                     ! Hour 24
  0,                                      ! Minute 24
  0;                                      ! Value Until Time 24

OS:Schedule:Day,
  {de9b460c-9e66-42c1-a67d-73105bbbaa28}, ! Handle
  satNECB-A-Occ,                          ! Name
  {9e11a0f2-c048-4496-8b91-90bb15eb0e86}, ! Schedule Type Limits Name
  ,                                       ! Interpolate to Timestep
  1,                                      ! Hour 1
  0,                                      ! Minute 1
  0,                                      ! Value Until Time 1
  2,                                      ! Hour 2
  0,                                      ! Minute 2
  0,                                      ! Value Until Time 2
  3,                                      ! Hour 3
  0,                                      ! Minute 3
  0,                                      ! Value Until Time 3
  4,                                      ! Hour 4
  0,                                      ! Minute 4
  0,                                      ! Value Until Time 4
  5,                                      ! Hour 5
  0,                                      ! Minute 5
  0,                                      ! Value Until Time 5
  6,                                      ! Hour 6
  0,                                      ! Minute 6
  0,                                      ! Value Until Time 6
  7,                                      ! Hour 7
  0,                                      ! Minute 7
  0,                                      ! Value Until Time 7
  8,                                      ! Hour 8
  0,                                      ! Minute 8
  0,                                      ! Value Until Time 8
  9,                                      ! Hour 9
  0,                                      ! Minute 9
  0,                                      ! Value Until Time 9
  10,                                     ! Hour 10
  0,                                      ! Minute 10
  0,                                      ! Value Until Time 10
  11,                                     ! Hour 11
  0,                                      ! Minute 11
  0,                                      ! Value Until Time 11
  12,                                     ! Hour 12
  0,                                      ! Minute 12
  0,                                      ! Value Until Time 12
  13,                                     ! Hour 13
  0,                                      ! Minute 13
  0,                                      ! Value Until Time 13
  14,                                     ! Hour 14
  0,                                      ! Minute 14
  0,                                      ! Value Until Time 14
  15,                                     ! Hour 15
  0,                                      ! Minute 15
  0,                                      ! Value Until Time 15
  16,                                     ! Hour 16
  0,                                      ! Minute 16
  0,                                      ! Value Until Time 16
  17,                                     ! Hour 17
  0,                                      ! Minute 17
  0,                                      ! Value Until Time 17
  18,                                     ! Hour 18
  0,                                      ! Minute 18
  0,                                      ! Value Until Time 18
  19,                                     ! Hour 19
  0,                                      ! Minute 19
  0,                                      ! Value Until Time 19
  20,                                     ! Hour 20
  0,                                      ! Minute 20
  0,                                      ! Value Until Time 20
  21,                                     ! Hour 21
  0,                                      ! Minute 21
  0,                                      ! Value Until Time 21
  22,                                     ! Hour 22
  0,                                      ! Minute 22
  0,                                      ! Value Until Time 22
  23,                                     ! Hour 23
  0,                                      ! Minute 23
  0,                                      ! Value Until Time 23
  24,                                     ! Hour 24
  0,                                      ! Minute 24
  0;                                      ! Value Until Time 24

OS:Schedule:Day,
  {ea936170-376c-4ebd-ba99-b93648064852}, ! Handle
  sunNECB-A-Occ,                          ! Name
  {9e11a0f2-c048-4496-8b91-90bb15eb0e86}, ! Schedule Type Limits Name
  ,                                       ! Interpolate to Timestep
  1,                                      ! Hour 1
  0,                                      ! Minute 1
  0,                                      ! Value Until Time 1
  2,                                      ! Hour 2
  0,                                      ! Minute 2
  0,                                      ! Value Until Time 2
  3,                                      ! Hour 3
  0,                                      ! Minute 3
  0,                                      ! Value Until Time 3
  4,                                      ! Hour 4
  0,                                      ! Minute 4
  0,                                      ! Value Until Time 4
  5,                                      ! Hour 5
  0,                                      ! Minute 5
  0,                                      ! Value Until Time 5
  6,                                      ! Hour 6
  0,                                      ! Minute 6
  0,                                      ! Value Until Time 6
  7,                                      ! Hour 7
  0,                                      ! Minute 7
  0,                                      ! Value Until Time 7
  8,                                      ! Hour 8
  0,                                      ! Minute 8
  0,                                      ! Value Until Time 8
  9,                                      ! Hour 9
  0,                                      ! Minute 9
  0,                                      ! Value Until Time 9
  10,                                     ! Hour 10
  0,                                      ! Minute 10
  0,                                      ! Value Until Time 10
  11,                                     ! Hour 11
  0,                                      ! Minute 11
  0,                                      ! Value Until Time 11
  12,                                     ! Hour 12
  0,                                      ! Minute 12
  0,                                      ! Value Until Time 12
  13,                                     ! Hour 13
  0,                                      ! Minute 13
  0,                                      ! Value Until Time 13
  14,                                     ! Hour 14
  0,                                      ! Minute 14
  0,                                      ! Value Until Time 14
  15,                                     ! Hour 15
  0,                                      ! Minute 15
  0,                                      ! Value Until Time 15
  16,                                     ! Hour 16
  0,                                      ! Minute 16
  0,                                      ! Value Until Time 16
  17,                                     ! Hour 17
  0,                                      ! Minute 17
  0,                                      ! Value Until Time 17
  18,                                     ! Hour 18
  0,                                      ! Minute 18
  0,                                      ! Value Until Time 18
  19,                                     ! Hour 19
  0,                                      ! Minute 19
  0,                                      ! Value Until Time 19
  20,                                     ! Hour 20
  0,                                      ! Minute 20
  0,                                      ! Value Until Time 20
  21,                                     ! Hour 21
  0,                                      ! Minute 21
  0,                                      ! Value Until Time 21
  22,                                     ! Hour 22
  0,                                      ! Minute 22
  0,                                      ! Value Until Time 22
  23,                                     ! Hour 23
  0,                                      ! Minute 23
  0,                                      ! Value Until Time 23
  24,                                     ! Hour 24
  0,                                      ! Minute 24
  0;                                      ! Value Until Time 24

OS:Schedule:Rule,
  {bd63a5c7-59e8-4258-a7ff-38d1739a5904}, ! Handle
  wkdNECB-A-Occ rule,                     ! Name
  {0de1f806-11b6-452b-9ca2-3acd3df0229e}, ! Schedule Ruleset Name
  2,                                      ! Rule Order
  {29528dd1-593c-4f94-85d8-41aa6d340bfb}, ! Day Schedule Name
  No,                                     ! Apply Sunday
  Yes,                                    ! Apply Monday
  Yes,                                    ! Apply Tuesday
  Yes,                                    ! Apply Wednesday
  Yes,                                    ! Apply Thursday
  Yes,                                    ! Apply Friday
  No,                                     ! Apply Saturday
  ,                                       ! Apply Holiday
  DateRange,                              ! Date Specification Type
  1,                                      ! Start Month
  1,                                      ! Start Day
  12,                                     ! End Month
  31;                                     ! End Day

OS:Schedule:Day,
  {29528dd1-593c-4f94-85d8-41aa6d340bfb}, ! Handle
  wkdNECB-A-Occ 1,                        ! Name
  {0cf61371-72f1-4920-b268-ba1720395304}, ! Schedule Type Limits Name
  ,                                       ! Interpolate to Timestep
  1,                                      ! Hour 1
  0,                                      ! Minute 1
  0,                                      ! Value Until Time 1
  2,                                      ! Hour 2
  0,                                      ! Minute 2
  0,                                      ! Value Until Time 2
  3,                                      ! Hour 3
  0,                                      ! Minute 3
  0,                                      ! Value Until Time 3
  4,                                      ! Hour 4
  0,                                      ! Minute 4
  0,                                      ! Value Until Time 4
  5,                                      ! Hour 5
  0,                                      ! Minute 5
  0,                                      ! Value Until Time 5
  6,                                      ! Hour 6
  0,                                      ! Minute 6
  0,                                      ! Value Until Time 6
  7,                                      ! Hour 7
  0,                                      ! Minute 7
  0,                                      ! Value Until Time 7
  8,                                      ! Hour 8
  0,                                      ! Minute 8
  0.1,                                    ! Value Until Time 8
  9,                                      ! Hour 9
  0,                                      ! Minute 9
  0.7,                                    ! Value Until Time 9
  10,                                     ! Hour 10
  0,                                      ! Minute 10
  0.9,                                    ! Value Until Time 10
  11,                                     ! Hour 11
  0,                                      ! Minute 11
  0.9,                                    ! Value Until Time 11
  12,                                     ! Hour 12
  0,                                      ! Minute 12
  0.9,                                    ! Value Until Time 12
  13,                                     ! Hour 13
  0,                                      ! Minute 13
  0.5,                                    ! Value Until Time 13
  14,                                     ! Hour 14
  0,                                      ! Minute 14
  0.5,                                    ! Value Until Time 14
  15,                                     ! Hour 15
  0,                                      ! Minute 15
  0.9,                                    ! Value Until Time 15
  16,                                     ! Hour 16
  0,                                      ! Minute 16
  0.9,                                    ! Value Until Time 16
  17,                                     ! Hour 17
  0,                                      ! Minute 17
  0.9,                                    ! Value Until Time 17
  18,                                     ! Hour 18
  0,                                      ! Minute 18
  0.7,                                    ! Value Until Time 18
  19,                                     ! Hour 19
  0,                                      ! Minute 19
  0.3,                                    ! Value Until Time 19
  20,                                     ! Hour 20
  0,                                      ! Minute 20
  0.1,                                    ! Value Until Time 20
  21,                                     ! Hour 21
  0,                                      ! Minute 21
  0.1,                                    ! Value Until Time 21
  22,                                     ! Hour 22
  0,                                      ! Minute 22
  0.1,                                    ! Value Until Time 22
  23,                                     ! Hour 23
  0,                                      ! Minute 23
  0.1,                                    ! Value Until Time 23
  24,                                     ! Hour 24
  0,                                      ! Minute 24
  0;                                      ! Value Until Time 24

OS:Schedule:Rule,
  {e086817e-ec9b-4f6b-af8a-9210f043f851}, ! Handle
  satNECB-A-Occrule,                      ! Name
  {0de1f806-11b6-452b-9ca2-3acd3df0229e}, ! Schedule Ruleset Name
  1,                                      ! Rule Order
  {12d4c30c-9ff2-44c6-9904-dc8dd4af257e}, ! Day Schedule Name
  No,                                     ! Apply Sunday
  No,                                     ! Apply Monday
  No,                                     ! Apply Tuesday
  No,                                     ! Apply Wednesday
  No,                                     ! Apply Thursday
  No,                                     ! Apply Friday
  Yes,                                    ! Apply Saturday
  ,                                       ! Apply Holiday
  DateRange,                              ! Date Specification Type
  1,                                      ! Start Month
  1,                                      ! Start Day
  12,                                     ! End Month
  31;                                     ! End Day

OS:Schedule:Day,
  {12d4c30c-9ff2-44c6-9904-dc8dd4af257e}, ! Handle
  satNECB-A-Occ 1,                        ! Name
  {0cf61371-72f1-4920-b268-ba1720395304}, ! Schedule Type Limits Name
  ,                                       ! Interpolate to Timestep
  1,                                      ! Hour 1
  0,                                      ! Minute 1
  0,                                      ! Value Until Time 1
  2,                                      ! Hour 2
  0,                                      ! Minute 2
  0,                                      ! Value Until Time 2
  3,                                      ! Hour 3
  0,                                      ! Minute 3
  0,                                      ! Value Until Time 3
  4,                                      ! Hour 4
  0,                                      ! Minute 4
  0,                                      ! Value Until Time 4
  5,                                      ! Hour 5
  0,                                      ! Minute 5
  0,                                      ! Value Until Time 5
  6,                                      ! Hour 6
  0,                                      ! Minute 6
  0,                                      ! Value Until Time 6
  7,                                      ! Hour 7
  0,                                      ! Minute 7
  0,                                      ! Value Until Time 7
  8,                                      ! Hour 8
  0,                                      ! Minute 8
  0,                                      ! Value Until Time 8