
OS:Version,
  {8dab20b6-f6c2-44fd-a597-9edb2f867a9f}, !- Handle
  1.1.0;                                  !- Version Identifier

OS:Schedule:Constant,
  {eee75891-9072-49e5-b52e-ab0c03c30aef}, !- Handle
  Always On Discrete,                     !- Name
  {f7129aa7-482f-4e90-883b-02a2267064c6}, !- Schedule Type Limits Name
  1;                                      !- Value

OS:ScheduleTypeLimits,
  {f7129aa7-482f-4e90-883b-02a2267064c6}, !- Handle
  Always On Discrete Limits,              !- Name
  0,                                      !- Lower Limit Value {BasedOnField A4}
  1,                                      !- Upper Limit Value {BasedOnField A4}
  Discrete,                               !- Numeric Type
  Availability;                           !- Unit Type

OS:Building,
  {08678ddd-175a-469b-9626-2f02c40b6916}, ! Handle
  Motel type Archetype 4A (Building 414), ! Name
  ,                                       ! Building Type
  180,                                    ! North Axis
  ,                                       ! Nominal Floor to Floor Height
  {e6f735a3-3753-4fe9-83ef-162a53ceade3}, ! Space Type Name
  {f7b68a59-87e0-4de6-8047-f75fef749334}, ! Default Construction Set Name
  ;                                       ! Default Schedule Set Name

OS:Construction,
  {305c1cce-364a-4113-af8d-9f7f6db58322}, ! Handle
  000_Interior Ceiling,                   ! Name
  {dc72bc9f-18f7-440c-b7c2-fe001cfd1243}, ! Surface Rendering Name
  {2be9922c-b8c7-43fc-b6fb-130ba70b23ad}, ! Layer 1
  {e5ef4582-1ed4-40f7-90f7-b948835c4680}, ! Layer 2
  {1f0b94e3-96e8-4759-9166-250e63a9c9c0}; ! Layer 3

OS:Construction,
  {07092fd3-9719-4a3a-851a-61e694c7b2e6}, ! Handle
  000_Interior Floor,                     ! Name
  {77cbc9c8-66df-4480-8d8c-d5a4529f1e25}, ! Surface Rendering Name
  {1f0b94e3-96e8-4759-9166-250e63a9c9c0}, ! Layer 1
  {e5ef4582-1ed4-40f7-90f7-b948835c4680}, ! Layer 2
  {2be9922c-b8c7-43fc-b6fb-130ba70b23ad}; ! Layer 3

OS:Construction,
  {e6ff48b6-cff2-4bb8-aed2-df3c527afd49}, ! Handle
  000_Interior Wall,                      ! Name
  {813d283b-bc32-489c-b121-283a449f2f77}, ! Surface Rendering Name
  {4fe86c6d-f73e-4893-b73f-ddf808c38106}, ! Layer 1
  {efc63ac2-25cf-4878-8100-f1e2d1f7e2f5}, ! Layer 2
  {4fe86c6d-f73e-4893-b73f-ddf808c38106}; ! Layer 3

OS:DefaultConstructionSet,
  {f7b68a59-87e0-4de6-8047-f75fef749334}, ! Handle
  Vintage 2 Construction Set,             ! Name
  {17eed0d5-87e8-4c58-9427-4d79deb9a0ab}, ! Default Exterior Surface Constructions Name
  {b5ab74a6-cb76-4262-9d85-7b3bbfcc4277}, ! Default Interior Surface Constructions Name
  {251b5fb3-1853-4601-8eed-7ff84433a049}, ! Default Ground Contact Surface Constructions Name
  {1dd4c92b-658a-4f5a-bd8a-fbc131c7903d}, ! Default Exterior SubSurface Constructions Name
  {63481193-2b49-42c5-a7cb-92bd9a79f7bb}, ! Default Interior SubSurface Constructions Name
  ,                                       ! Interior Partition Construction Name
  ,                                       ! Space Shading Construction Name
  ,                                       ! Building Shading Construction Name
  ;                                       ! Site Shading Construction Name

OS:DefaultScheduleSet,
  {8a81b2f4-b374-4017-b769-325c976f1555}, ! Handle
  NECB-A,                                 ! Name
  {6e356d32-26b3-472f-b14d-72eec40ab293}, ! Hours of Operation Schedule Name
  {0de1f806-11b6-452b-9ca2-3acd3df0229e}, ! Number of People Schedule Name
  ,                                       ! People Activity Level Schedule Name
  {eb37e738-0107-41d9-b561-66999156d864}, ! Lighting Schedule Name
  {f7ed7642-98f4-44a6-b141-ac8c49a325f6}, ! Electric Equipment Schedule Name
  ,                                       ! Gas Equipment Schedule Name
  {a2c7a81f-7fc1-4b23-8c80-5b0f2903e1b5}, ! Hot Water Equipment Schedule Name
  ,                                       ! Infiltration Schedule Name
  ,                                       ! Steam Equipment Schedule Name
  {87c029bd-c907-4381-beb3-4e3e3f432fda}; ! Other Equipment Schedule Name

OS:Schedule:Ruleset,
  {0de1f806-11b6-452b-9ca2-3acd3df0229e}, ! Handle
  NECB-A-Occ,                             ! Name
  {0cf61371-72f1-4920-b268-ba1720395304}, ! Schedule Type Limits Name
  {03f2ac1d-a8c3-4e95-a478-7feb9a61c88d}; ! Default Day Schedule Name

OS:Schedule:Day,
  {03f2ac1d-a8c3-4e95-a478-7feb9a61c88d}, ! Handle
  Schedule Day 1,                         ! Name
  {0cf61371-72f1-4920-b268-ba1720395304}, ! Schedule Type Limits Name
  ,                                       ! Interpolate to Timestep
  24,                                     ! Hour 1
  0,                                      ! Minute 1
  0;                                      ! Value Until Time 1

OS:Schedule:Rule,
  {bd63a5c7-59e8-4258-a7ff-38d1739a5904}, ! Handle
  wkdNECB-A-Occ rule,                     ! Name
  {0de1f806-11b6-452b-9ca2-3acd3df0229e}, ! Schedule Ruleset Name
  2,                                      ! Rule Order
  {29528dd1-593c-4f94-85d8-41aa6d340bfb}, ! Day Schedule Name
  No,                                     ! Apply Sunday
  Yes,                                    ! Apply Monday
  Yes,                                    ! Apply Tuesday
  Yes,                                    ! Apply Wednesday
  Yes,                                    ! Apply Thursday
  Yes,                                    ! Apply Friday
  No,                                     ! Apply Saturday
  ,                                       ! Apply Holiday
  DateRange,                              ! Date Specification Type
  1,                                      ! Start Month
  1,                                      ! Start Day
  12,                                     ! End Month
  31;                                     ! End Day

OS:Schedule:Day,
  {29528dd1-593c-4f94-85d8-41aa6d340bfb}, ! Handle
  wkdNECB-A-Occ 1,                        ! Name
  {0cf61371-72f1-4920-b268-ba1720395304}, ! Schedule Type Limits Name
  ,                                       ! Interpolate to Timestep
  1,                                      ! Hour 1
  0,                                      ! Minute 1
  0,                                      ! Value Until Time 1
  2,                                      ! Hour 2
  0,                                      ! Minute 2
  0,                                      ! Value Until Time 2
  3,                                      ! Hour 3
  0,                                      ! Minute 3
  0,                                      ! Value Until Time 3
  4,                                      ! Hour 4
  0,                                      ! Minute 4
  0,                                      ! Value Until Time 4
  5,                                      ! Hour 5
  0,                                      ! Minute 5
  0,                                      ! Value Until Time 5
  6,                                      ! Hour 6
  0,                                      ! Minute 6
  0,                                      ! Value Until Time 6
  7,                                      ! Hour 7
  0,                                      ! Minute 7
  0,                                      ! Value Until Time 7
  8,                                      ! Hour 8
  0,                                      ! Minute 8
  0.1,                                    ! Value Until Time 8
  9,                                      ! Hour 9
  0,                                      ! Minute 9
  0.7,                                    ! Value Until Time 9
  10,                                     ! Hour 10
  0,                                      ! Minute 10
  0.9,                                    ! Value Until Time 10
  11,                                     ! Hour 11
  0,                                      ! Minute 11
  0.9,                                    ! Value Until Time 11
  12,                                     ! Hour 12
  0,                                      ! Minute 12
  0.9,                                    ! Value Until Time 12
  13,                                     ! Hour 13
  0,                                      ! Minute 13
  0.5,                                    ! Value Until Time 13
  14,                                     ! Hour 14
  0,                                      ! Minute 14
  0.5,                                    ! Value Until Time 14
  15,                                     ! Hour 15
  0,                                      ! Minute 15
  0.9,                                    ! Value Until Time 15
  16,                                     ! Hour 16
  0,                                      ! Minute 16
  0.9,                                    ! Value Until Time 16
  17,                                     ! Hour 17
  0,                                      ! Minute 17
  0.9,                                    ! Value Until Time 17
  18,                                     ! Hour 18
  0,                                      ! Minute 18
  0.7,                                    ! Value Until Time 18
  19,                                     ! Hour 19
  0,                                      ! Minute 19
  0.3,                                    ! Value Until Time 19
  20,                                     ! Hour 20
  0,                                      ! Minute 20
  0.1,                                    ! Value Until Time 20
  21,                                     ! Hour 21
  0,                                      ! Minute 21
  0.1,                                    ! Value Until Time 21
  22,                                     ! Hour 22
  0,                                      ! Minute 22
  0.1,                                    ! Value Until Time 22
  23,                                     ! Hour 23
  0,                                      ! Minute 23
  0.1,                                    ! Value Until Time 23
  24,                                     ! Hour 24
  0,                                      ! Minute 24
  0;                                      ! Value Until Time 24

OS:Schedule:Rule,
  {e086817e-ec9b-4f6b-af8a-9210f043f851}, ! Handle
  satNECB-A-Occrule,                      ! Name
  {0de1f806-11b6-452b-9ca2-3acd3df0229e}, ! Schedule Ruleset Name
  1,                                      ! Rule Order
  {12d4c30c-9ff2-44c6-9904-dc8dd4af257e}, ! Day Schedule Name
  No,                                     ! Apply Sunday
  No,                                     ! Apply Monday
  No,                                     ! Apply Tuesday
  No,                                     ! Apply Wednesday
  No,                                     ! Apply Thursday
  No,                                     ! Apply Friday
  Yes,                                    ! Apply Saturday
  ,                                       ! Apply Holiday
  DateRange,                              ! Date Specification Type
  1,                                      ! Start Month
  1,                                      ! Start Day
  12,                                     ! End Month
  31;                                     ! End Day

OS:Schedule:Day,
  {12d4c30c-9ff2-44c6-9904-dc8dd4af257e}, ! Handle
  satNECB-A-Occ 1,                        ! Name
  {0cf61371-72f1-4920-b268-ba1720395304}, ! Schedule Type Limits Name
  ,                                       ! Interpolate to Timestep
  1,                                      ! Hour 1
  0,                                      ! Minute 1
  0,                                      ! Value Until Time 1
  2,                                      ! Hour 2
  0,                                      ! Minute 2
  0,                                      ! Value Until Time 2
  3,                                      ! Hour 3
  0,                                      ! Minute 3
  0,                                      ! Value Until Time 3
  4,                                      ! Hour 4
  0,                                      ! Minute 4
  0,                                      ! Value Until Time 4
  5,                                      ! Hour 5
  0,                                      ! Minute 5
  0,                                      ! Value Until Time 5
  6,                                      ! Hour 6
  0,                                      ! Minute 6
  0,                                      ! Value Until Time 6
  7,                                      ! Hour 7
  0,                                      ! Minute 7
  0,                                      ! Value Until Time 7
  8,                                      ! Hour 8
  0,                                      ! Minute 8
  0,                                      ! Value Until Time 8
  9,                                      ! Hour 9
  0,                                      ! Minute 9
  0,                                      ! Value Until Time 9
  10,                                     ! Hour 10
  0,                                      ! Minute 10
  0,                                      ! Value Until Time 10
  11,                                     ! Hour 11
  0,                                      ! Minute 11
  0,                                      ! Value Until Time 11
  12,                                     ! Hour 12
  0,                                      ! Minute 12
  0,                                      ! Value Until Time 12
  13,                                     ! Hour 13
  0,                                      ! Minute 13
  0,                                      ! Value Until Time 13
  14,                                     ! Hour 14
  0,                                      ! Minute 14
  0,                                      ! Value Until Time 14
  15,                                     ! Hour 15
  0,                                      ! Minute 15
  0,                                      ! Value Until Time 15
  16,                                     ! Hour 16
  0,                                      ! Minute 16
  0,                                      ! Value Until Time 16
  17,                                     ! Hour 17
  0,                                      ! Minute 17
  0,                                      ! Value Until Time 17
  18,                                     ! Hour 18
  0,                                      ! Minute 18
  0,                                      ! Value Until Time 18
  19,                                     ! Hour 19
  0,                                      ! Minute 19
  0,                                      ! Value Until Time 19
  20,                                     ! Hour 20
  0,                                      ! Minute 20
  0,                                      ! Value Until Time 20
  21,                                     ! Hour 21
  0,                                      ! Minute 21
  0,                                      ! Value Until Time 21
  22,                                     ! Hour 22
  0,                                      ! Minute 22
  0,                                      ! Value Until Time 22
  23,                                     ! Hour 23
  0,                                      ! Minute 23
  0,                                      ! Value Until Time 23
  24,                                     ! Hour 24
  0,                                      ! Minute 24
  0;                                      ! Value Until Time 24

OS:Schedule:Rule,
  {884e551f-73e4-4869-ad23-b1379f375c8d}, ! Handle
  sunNECB-A-Occrule,                      ! Name
  {0de1f806-11b6-452b-9ca2-3acd3df0229e}, ! Schedule Ruleset Name
  0,                                      ! Rule Order
  {1a525f56-9f21-4ba6-812c-d03cf14c4aff}, ! Day Schedule Name
  Yes,                                    ! Apply Sunday
  No,                                     ! Apply Monday
  No,                                     ! Apply Tuesday
  No,                                     ! Apply Wednesday
  No,                                     ! Apply Thursday
  No,                                     ! Apply Friday
  No,                                     ! Apply Saturday
  ,                                       ! Apply Holiday
  DateRange,                              ! Date Specification Type
  1,                                      ! Start Month
  1,                                      ! Start Day
  12,                                     ! End Month
  31;                                     ! End Day

OS:Schedule:Day,
  {1a525f56-9f21-4ba6-812c-d03cf14c4aff}, ! Handle
  sunNECB-A-Occ 1,                        ! Name
  {0cf61371-72f1-4920-b268-ba1720395304}, ! Schedule Type Limits Name
  ,                                       ! Interpolate to Timestep
  1,                                      ! Hour 1
  0,                                      ! Minute 1
  0,                                      ! Value Until Time 1
  2,                                      ! Hour 2
  0,                                      ! Minute 2
  0,                                      ! Value Until Time 2
  3,                                      ! Hour 3
  0,                                      ! Minute 3
  0,                                      ! Value Until Time 3
  4,                                      ! Hour 4
  0,                                      ! Minute 4
  0,                                      ! Value Until Time 4
  5,                                      ! Hour 5
  0,                                      ! Minute 5
  0,                                      ! Value Until Time 5
  6,                                      ! Hour 6
  0,                                      ! Minute 6
  0,                                      ! Value Until Time 6
  7,                                      ! Hour 7
  0,                                      ! Minute 7
  0,                                      ! Value Until Time 7
  8,                                      ! Hour 8
  0,                                      ! Minute 8
  0,                                      ! Value Until Time 8
  9,                                      ! Hour 9
  0,                                      ! Minute 9
  0,                                      ! Value Until Time 9
  10,                                     ! Hour 10
  0,                                      ! Minute 10
  0,                                      ! Value Until Time 10
  11,                                     ! Hour 11
  0,                                      ! Minute 11
  0,                                      ! Value Until Time 11
  12,                                     ! Hour 12
  0,                                      ! Minute 12
  0,                                      ! Value Until Time 12
  13,                                     ! Hour 13
  0,                                      ! Minute 13
  0,                                      ! Value Until Time 13
  14,                                     ! Hour 14
  0,                                      ! Minute 14
  0,                                      ! Value Until Time 14
  15,                                     ! Hour 15
  0,                                      ! Minute 15
  0,                                      ! Value Until Time 15
  16,                                     ! Hour 16
  0,                                      ! Minute 16
  0,                                      ! Value Until Time 16
  17,                                     ! Hour 17
  0,                                      ! Minute 17
  0,                                      ! Value Until Time 17
  18,                                     ! Hour 18
  0,                                      ! Minute 18
  0,                                      ! Value Until Time 18
  19,                                     ! Hour 19
  0,                                      ! Minute 19
  0,                                      ! Value Until Time 19
  20,                                     ! Hour 20
  0,                                      ! Minute 20
  0,                                      ! Value Until Time 20
  21,                                     ! Hour 21
  0,                                      ! Minute 21
  0,                                      ! Value Until Time 21
  22,                                     ! Hour 22
  0,                                      ! Minute 22
  0,                                      ! Value Until Time 22
  23,                                     ! Hour 23
  0,                                      ! Minute 23
  0,                                      ! Value Until Time 23
  24,                                     ! Hour 24
  0,                                      ! Minute 24
  0;                                      ! Value Until Time 24

OS:ScheduleTypeLimits,
  {0cf61371-72f1-4920-b268-ba1720395304}, ! Handle
  Fractional,                             ! Name
  0,                                      ! Lower Limit Value {BasedOnField A4}
  1,                                      ! Upper Limit Value {BasedOnField A4}
  Continuous,                             ! Numeric Type
  ;                                       !- Unit Type

OS:Schedule:Ruleset,
  {eb37e738-0107-41d9-b561-66999156d864}, ! Handle
  NECB-A-Ltg,                             ! Name
  {0cf61371-72f1-4920-b268-ba1720395304}, ! Schedule Type Limits Name
  {f982cb74-78d0-4116-9bf4-a728cabad3b6}; ! Default Day Schedule Name

OS:Schedule:Day,
  {f982cb74-78d0-4116-9bf4-a728cabad3b6}, ! Handle
  Schedule Day 2,                         ! Name
  {0cf61371-72f1-4920-b268-ba1720395304}, ! Schedule Type Limits Name
  ,                                       ! Interpolate to Timestep
  24,                                     ! Hour 1
  0,                                      ! Minute 1
  0;                                      ! Value Until Time 1

OS:Schedule:Rule,
  {93da2044-abda-4678-90e4-3b322672c73d}, ! Handle
  wkdNECB-A-Ltg rule,                     ! Name
  {eb37e738-0107-41d9-b561-66999156d864}, ! Schedule Ruleset Name
  2,                                      ! Rule Order
  {35f2f399-2f03-442a-9cb5-b0480c5b61a4}, ! Day Schedule Name
  No,                                     ! Apply Sunday
  Yes,                                    ! Apply Monday
  Yes,                                    ! Apply Tuesday
  Yes,                                    ! Apply Wednesday
  Yes,                                    ! Apply Thursday
  Yes,                                    ! Apply Friday
  No,                                     ! Apply Saturday
  ,                                       ! Apply Holiday
  DateRange,                              ! Date Specification Type
  1,                                      ! Start Month
  1,                                      ! Start Day
  12,                                     ! End Month
  31;                                     ! End Day

OS:Schedule:Day,
  {35f2f399-2f03-442a-9cb5-b0480c5b61a4}, ! Handle
  wkdNECB-A-Ltg 1,                        ! Name
  {0cf61371-72f1-4920-b268-ba1720395304}, ! Schedule Type Limits Name
  ,                                       ! Interpolate to Timestep
  1,                                      ! Hour 1
  0,                                      ! Minute 1
  0.05,                                   ! Value Until Time 1
  2,                                      ! Hour 2
  0,                                      ! Minute 2
  0.05,                                   ! Value Until Time 2
  3,                                      ! Hour 3
  0,                                      ! Minute 3
  0.05,                                   ! Value Until Time 3
  4,                                      ! Hour 4
  0,                                      ! Minute 4
  0.05,                                   ! Value Until Time 4
  5,                                      ! Hour 5
  0,                                      ! Minute 5
  0.05,                                   ! Value Until Time 5
  6,                                      ! Hour 6
  0,                                      ! Minute 6
  0.05,                                   ! Value Until Time 6
  7,                                      ! Hour 7
  0,                                      ! Minute 7
  0.05,                                   ! Value Until Time 7
  8,                                      ! Hour 8
  0,                                      ! Minute 8
  0.3,                                    ! Value Until Time 8
  9,                                      ! Hour 9
  0,                                      ! Minute 9
  0.8,                                    ! Value Until Time 9
  10,                                     ! Hour 10
  0,                                      ! Minute 10
  0.9,                                    ! Value Until Time 10
  11,                                     ! Hour 11
  0,                                      ! Minute 11
  0.9,                                    ! Value Until Time 11
  12,                                     ! Hour 12
  0,                                      ! Minute 12
  0.9,                                    ! Value Until Time 12
  13,                                     ! Hour 13
  0,                                      ! Minute 13
  0.9,                                    ! Value Until Time 13
  14,                                     ! Hour 14
  0,                                      ! Minute 14
  0.9,                                    ! Value Until Time 14
  15,                                     ! Hour 15
  0,                                      ! Minute 15
  0.9,                                    ! Value Until Time 15
  16,                                     ! Hour 16
  0,                                      ! Minute 16
  0.9,                                    ! Value Until Time 16
  17,                                     ! Hour 17
  0,                                      ! Minute 17
  0.9,                                    ! Value Until Time 17
  18,                                     ! Hour 18
  0,                                      ! Minute 18
  0.8,                                    ! Value Until Time 18
  19,                                     ! Hour 19
  0,                                      ! Minute 19
  0.5,                                    ! Value Until Time 19
  20,                                     ! Hour 20
  0,                                      ! Minute 20
  0.3,                                    ! Value Until Time 20
  21,                                     ! Hour 21
  0,                                      ! Minute 21
  0.3,                                    ! Value Until Time 21
  22,                                     ! Hour 22
  0,                                      ! Minute 22
  0.1,                                    ! Value Until Time 22
  23,                                     ! Hour 23
  0,                                      ! Minute 23
  0.1,                                    ! Value Until Time 23
  24,                                     ! Hour 24
  0,                                      ! Minute 24
  0.05;                                   ! Value Until Time 24

OS:Schedule:Rule,
  {7734439d-7057-401a-9175-944c74a19613}, ! Handle
  satNECB-A-Ltgrule,                      ! Name
  {eb37e738-0107-41d9-b561-66999156d864}, ! Schedule Ruleset Name
  1,                                      ! Rule Order
  {09ddb7cd-6e7d-4972-b118-1f63bbc46195}, ! Day Schedule Name
  No,                                     ! Apply Sunday
  No,                                     ! Apply Monday
  No,                                     ! Apply Tuesday
  No,                                     ! Apply Wednesday
  No,                                     ! Apply Thursday
  No,                                     ! Apply Friday
  Yes,                                    ! Apply Saturday
  ,                                       ! Apply Holiday
  DateRange,                              ! Date Specification Type
  1,                                      ! Start Month
  1,                                      ! Start Day
  12,                                     ! End Month
  31;                                     ! End Day

OS:Schedule:Day,
  {09ddb7cd-6e7d-4972-b118-1f63bbc46195}, ! Handle
  satNECB-A-Ltg 1,                        ! Name
  {0cf61371-72f1-4920-b268-ba1720395304}, ! Schedule Type Limits Name
  ,                                       ! Interpolate to Timestep
  1,                                      ! Hour 1
  0,                                      ! Minute 1
  0.05,                                   ! Value Until Time 1
  2,                                      ! Hour 2
  0,                                      ! Minute 2
  0.05,                                   ! Value Until Time 2
  3,                                      ! Hour 3
  0,                                      ! Minute 3
  0.05,                                   ! Value Until Time 3
  4,                                      ! Hour 4
  0,                                      ! Minute 4
  0.05,                                   ! Value Until Time 4
  5,                                      ! Hour 5
  0,                                      ! Minute 5
  0.05,                                   ! Value Until Time 5
  6,                                      ! Hour 6
  0,                                      ! Minute 6
  0.05,                                   ! Value Until Time 6
  7,                                      ! Hour 7
  0,                                      ! Minute 7
  0.05,                                   ! Value Until Time 7
  8,                                      ! Hour 8
  0,                                      ! Minute 8
  0.05,                                   ! Value Until Time 8
  9,                                      ! Hour 9