
OS:Version,
  {db039bc4-5a8a-43c4-980e-aa0cad551d5b}, !- Handle
  1.1.0;                                  !- Version Identifier

OS:Schedule:Constant,
  {ce78113b-92cb-464b-b5b5-335dfc0a5124}, !- Handle
  Always On Discrete,                     !- Name
  {824a8d6f-5a9b-4b20-95a6-30e78a26ee72}, !- Schedule Type Limits Name
  1;                                      !- Value

OS:ScheduleTypeLimits,
  {824a8d6f-5a9b-4b20-95a6-30e78a26ee72}, !- Handle
  Always On Discrete Limits,              !- Name
  0,                                      !- Lower Limit Value {BasedOnField A4}
  1,                                      !- Upper Limit Value {BasedOnField A4}
  Discrete,                               !- Numeric Type
  Availability;                           !- Unit Type

OS:Building,
  {c499957f-e724-4d6c-8354-6b15375a70aa}, ! Handle
  Building 58 - Archetype 5A,             ! Name
  ,                                       ! Building Type
  -5,                                     ! North Axis
  ,                                       ! Nominal Floor to Floor Height
  ,                                       ! Space Type Name
  {edc966a3-0c25-4553-bec2-c8cefe5e48fd}, ! Default Construction Set Name
  ;                                       ! Default Schedule Set Name

OS:DesignSpecification:OutdoorAir,
  {4e43d69b-f07c-41bf-b972-d55193e59cb5}, ! Handle
  PrimarySchool Cafeteria Outdoor Air,    ! Name
  Sum,                                    ! Outdoor Air Method
  0.01076452,                             ! Outdoor Air Flow per Person
  0.0,                                    ! Outdoor Air Flow per Floor Area
  0,                                      ! Outdoor Air Flow Rate
  0,                                      ! Outdoor Air Flow Air Changes per Hour
  ;                                       ! Outdoor Air Flow Rate Fraction Schedule Name

OS:DesignSpecification:OutdoorAir,
  {3c8d1ed5-c3d4-4367-aa4f-add3683680fa}, ! Handle
  PrimarySchool Classroom Outdoor Air,    ! Name
  Sum,                                    ! Outdoor Air Method
  0.0086106,                              ! Outdoor Air Flow per Person
  0.0,                                    ! Outdoor Air Flow per Floor Area
  0,                                      ! Outdoor Air Flow Rate
  0,                                      ! Outdoor Air Flow Air Changes per Hour
  ;                                       ! Outdoor Air Flow Rate Fraction Schedule Name

OS:DesignSpecification:OutdoorAir,
  {2561fd5b-cff4-48bb-8b06-31aa7e9fbc4a}, ! Handle
  PrimarySchool Corridor Outdoor Air,     ! Name
  Sum,                                    ! Outdoor Air Method
  0.0,                                    ! Outdoor Air Flow per Person
  0.000508,                               ! Outdoor Air Flow per Floor Area
  0,                                      ! Outdoor Air Flow Rate
  0,                                      ! Outdoor Air Flow Air Changes per Hour
  ;                                       ! Outdoor Air Flow Rate Fraction Schedule Name

OS:DesignSpecification:OutdoorAir,
  {3df9d5e2-f15d-41e4-b43e-4e95448416ba}, ! Handle
  PrimarySchool Gym Outdoor Air,          ! Name
  Sum,                                    ! Outdoor Air Method
  0.01076452,                             ! Outdoor Air Flow per Person
  0.0,                                    ! Outdoor Air Flow per Floor Area
  0,                                      ! Outdoor Air Flow Rate
  0,                                      ! Outdoor Air Flow Air Changes per Hour
  ;                                       ! Outdoor Air Flow Rate Fraction Schedule Name

OS:DesignSpecification:OutdoorAir,
  {8fe52428-752d-4d02-84b0-1d2342c59807}, ! Handle
  PrimarySchool Kitchen Outdoor Air,      ! Name
  Sum,                                    ! Outdoor Air Method
  0.0086106,                              ! Outdoor Air Flow per Person
  0.0,                                    ! Outdoor Air Flow per Floor Area
  0,                                      ! Outdoor Air Flow Rate
  0,                                      ! Outdoor Air Flow Air Changes per Hour
  ;                                       ! Outdoor Air Flow Rate Fraction Schedule Name

OS:DesignSpecification:OutdoorAir,
  {9989b241-071a-49b0-bfb5-8145196b971b}, ! Handle
  PrimarySchool Library Outdoor Air,      ! Name
  Sum,                                    ! Outdoor Air Method
  0.0086106,                              ! Outdoor Air Flow per Person
  0.0,                                    ! Outdoor Air Flow per Floor Area
  0,                                      ! Outdoor Air Flow Rate
  0,                                      ! Outdoor Air Flow Air Changes per Hour
  ;                                       ! Outdoor Air Flow Rate Fraction Schedule Name

OS:DesignSpecification:OutdoorAir,
  {edf72354-c74a-440f-93db-1351c69f0b00}, ! Handle
  PrimarySchool Lobby Outdoor Air,        ! Name
  Sum,                                    ! Outdoor Air Method
  0.0,                                    ! Outdoor Air Flow per Person
  0.000508,                               ! Outdoor Air Flow per Floor Area
  0,                                      ! Outdoor Air Flow Rate
  0,                                      ! Outdoor Air Flow Air Changes per Hour
  ;                                       ! Outdoor Air Flow Rate Fraction Schedule Name

OS:DesignSpecification:OutdoorAir,
  {f245a025-f409-45ab-a013-05f7f83dfaee}, ! Handle
  PrimarySchool Mechanical Outdoor Air,   ! Name
  Sum,                                    ! Outdoor Air Method
  0.0,                                    ! Outdoor Air Flow per Person
  0.000508,                               ! Outdoor Air Flow per Floor Area
  0,                                      ! Outdoor Air Flow Rate
  0,                                      ! Outdoor Air Flow Air Changes per Hour
  ;                                       ! Outdoor Air Flow Rate Fraction Schedule Name

OS:DesignSpecification:OutdoorAir,
  {fac3000d-2de5-4867-8e40-598f6236d0cd}, ! Handle
  PrimarySchool Office Outdoor Air,       ! Name
  Sum,                                    ! Outdoor Air Method
  0.01076452,                             ! Outdoor Air Flow per Person
  0.0,                                    ! Outdoor Air Flow per Floor Area
  0,                                      ! Outdoor Air Flow Rate
  0,                                      ! Outdoor Air Flow Air Changes per Hour
  ;                                       ! Outdoor Air Flow Rate Fraction Schedule Name

OS:DesignSpecification:OutdoorAir,
  {05bce6c0-a893-4e38-85e4-bab572b89ad3}, ! Handle
  PrimarySchool Restroom Outdoor Air,     ! Name
  Sum,                                    ! Outdoor Air Method
  0.02690876,                             ! Outdoor Air Flow per Person
  0.0,                                    ! Outdoor Air Flow per Floor Area
  0,                                      ! Outdoor Air Flow Rate
  0,                                      ! Outdoor Air Flow Air Changes per Hour
  ;                                       ! Outdoor Air Flow Rate Fraction Schedule Name

OS:Facility,
  {973eeee2-9c43-4ef0-b8f9-4cf85faaf272}; ! Handle

OS:GasEquipment:Definition,
  {a19be15a-ad76-4750-96e6-e3dc39c3c731}, ! Handle
  ASHRAE 189.1-2009 ClimateZone 1-3 PrimarySchool Kitchen GasDef, ! Name
  Watts/Area,                             ! Design Level Calculation Method
  0,                                      ! Design Level
  695.6715302319493,                      ! Watts per Space Floor Area
  ;                                       ! Watts per Person

OS:GasEquipment:Definition,
  {28b06046-4e43-4105-adbe-ba43d1712257}, ! Handle
  ASHRAE 189.1-2009 ClimateZone 4-8 PrimarySchool Kitchen GasDef, ! Name
  Watts/Area,                             ! Design Level Calculation Method
  0,                                      ! Design Level
  695.6715302319493,                      ! Watts per Space Floor Area
  ;                                       ! Watts per Person

OS:GasEquipment:Definition,
  {a3fdb758-04b2-41a3-b409-aa42609286c7}, ! Handle
  ASHRAE 90.1-2004 PrimarySchool Kitchen GasDef, ! Name
  Watts/Area,                             ! Design Level Calculation Method
  0,                                      ! Design Level
  954.4363475883448,                      ! Watts per Space Floor Area
  ;                                       ! Watts per Person

OS:GasEquipment:Definition,
  {70a93a71-e2a1-4417-a2ac-c16f643abc28}, ! Handle
  CBECS 1980-2004 PrimarySchool Kitchen GasDef, ! Name
  Watts/Area,                             ! Design Level Calculation Method
  0,                                      ! Design Level
  954.435936649651,                       ! Watts per Space Floor Area
  ;                                       ! Watts per Person

OS:GasEquipment:Definition,
  {36437862-df3e-4832-872d-3345d39f6492}, ! Handle
  CBECS Before-1980 PrimarySchool Kitchen GasDef, ! Name
  Watts/Area,                             ! Design Level Calculation Method
  0,                                      ! Design Level
  954.435936649651,                       ! Watts per Space Floor Area
  ;                                       ! Watts per Person

OS:Material,
  {9106a0e1-939d-4dec-ac4d-7fad3e78a5b8}, ! Handle
  000 F08 Metal surface,                  ! Name
  Smooth,                                 ! Roughness
  0.00080000000000000004,                 ! Thickness
  45.280000000000001,                     ! Conductivity
  7824,                                   ! Density
  500;                                    ! Specific Heat

OS:Material,
  {96ac13bf-304b-40f2-b22c-d486b2f8204c}, ! Handle
  000 F16 Acoustic tile,                  ! Name
  MediumSmooth,                           ! Roughness
  0.019099999999999999,                   ! Thickness
  0.059999999999999998,                   ! Conductivity
  368,                                    ! Density
  590;                                    ! Specific Heat

OS:Material,
  {d2967a99-4cb6-45b5-9517-f2bf1d1db12f}, ! Handle
  000 G01a 19mm gypsum board,             ! Name
  MediumSmooth,                           ! Roughness
  0.019,                                  ! Thickness
  0.16,                                   ! Conductivity
  800,                                    ! Density
  1090;                                   ! Specific Heat

OS:Material,
  {24ff4ee3-b9e9-4cef-a2a3-d2dbadfc442a}, ! Handle
  000 G05 25mm wood,                      ! Name
  MediumSmooth,                           ! Roughness
  0.025399999999999999,                   ! Thickness
  0.14999999999999999,                    ! Conductivity
  608,                                    ! Density
  1630;                                   ! Specific Heat

OS:Material,
  {b7b29a34-b470-4fce-9c20-6c5d510ab765}, ! Handle
  000 I01 25mm insulation board,          ! Name
  MediumRough,                            ! Roughness
  0.025399999999999999,                   ! Thickness
  0.029999999999999999,                   ! Conductivity
  43,                                     ! Density
  1210;                                   ! Specific Heat

OS:Material,
  {d8e35101-a10c-4bd9-b9db-148746f7b936}, ! Handle
  000 I02 50mm insulation board,          ! Name
  MediumRough,                            ! Roughness
  0.050799999999999998,                   ! Thickness
  0.029999999999999999,                   ! Conductivity
  43,                                     ! Density
  1210;                                   ! Specific Heat

OS:Material,
  {26a2ddc9-fdc5-4ce2-9b39-b0a22a8d82a1}, ! Handle
  000 M01 100mm brick,                    ! Name
  MediumRough,                            ! Roughness
  0.1016,                                 ! Thickness
  0.89000000000000001,                    ! Conductivity
  1920,                                   ! Density
  790;                                    ! Specific Heat

OS:Material,
  {20266794-3302-4111-b028-832dbf66b053}, ! Handle
  000 M05 200mm concrete block,           ! Name
  MediumRough,                            ! Roughness
  0.20319999999999999,                    ! Thickness
  1.1100000000000001,                     ! Conductivity
  800,                                    ! Density
  920;                                    ! Specific Heat

OS:Material,
  {7dfde206-fc96-4a24-975a-a6a956ee1664}, ! Handle
  000 M11 100mm lightweight concrete,     ! Name
  MediumRough,                            ! Roughness
  0.1016,                                 ! Thickness
  0.53000000000000003,                    ! Conductivity
  1280,                                   ! Density
  840;                                    ! Specific Heat

OS:Material,
  {280cbd01-22e3-4d69-9efe-291b49f65592}, ! Handle
  000 M15 200mm heavyweight concrete,     ! Name
  MediumRough,                            ! Roughness
  0.20319999999999999,                    ! Thickness
  1.95,                                   ! Conductivity
  2240,                                   ! Density
  900;                                    ! Specific Heat

OS:Material,
  {ca6276a3-6aea-4e41-a4ca-df8a266cdd35}, ! Handle
  1/2IN Gypsum,                           ! Name
  Smooth,                                 ! Roughness
  0.012699999999999999,                   ! Thickness
  0.16,                                   ! Conductivity
  784.89999999999998,                     ! Density
  830,                                    ! Specific Heat
  0.90000000000000002,                    ! Thermal Absorptance
  0.92000000000000004,                    ! Solar Absorptance
  0.92000000000000004;                    ! Visible Absorptance

OS:Material,
  {c35ddc00-9a3a-4dbd-b4e7-908e8cfad979}, ! Handle
  1IN Stucco,                             ! Name
  Smooth,                                 ! Roughness
  0.0253,                                 ! Thickness
  0.69179999999999997,                    ! Conductivity
  1858,                                   ! Density
  837,                                    ! Specific Heat
  0.90000000000000002,                    ! Thermal Absorptance
  0.92000000000000004,                    ! Solar Absorptance
  0.92000000000000004;                    ! Visible Absorptance

OS:Material,
  {b3da65cf-0c88-48c3-9a73-949e46b07edb}, ! Handle
  8IN CONCRETE HW RefBldg,                ! Name
  Rough,                                  ! Roughness
  0.20319999999999999,                    ! Thickness
  1.3109999999999999,                     ! Conductivity
  2240,                                   ! Density
  836.79999999999995,                     ! Specific Heat
  0.90000000000000002,                    ! Thermal Absorptance
  0.69999999999999996,                    ! Solar Absorptance
  0.69999999999999996;                    ! Visible Absorptance

OS:Material,
  {803e948f-b280-4a8f-b3b9-23e2ec13e482}, ! Handle
  8IN Concrete HW,                        ! Name
  MediumRough,                            ! Roughness
  0.20330000000000001,                    ! Thickness
  1.7296,                                 ! Conductivity
  2243,                                   ! Density
  837,                                    ! Specific Heat
  0.90000000000000002,                    ! Thermal Absorptance
  0.65000000000000002,                    ! Solar Absorptance
  0.65000000000000002;                    ! Visible Absorptance

OS:Material,
  {dab65cf1-bae0-4818-84b0-838cd56d3c10}, ! Handle
  AtticFloor Insulation,                  ! Name
  MediumRough,                            ! Roughness
  0.2379,                                 ! Thickness
  0.049000000000000002,                   ! Conductivity
  265,                                    ! Density
  836.79999999999995,                     ! Specific Heat
  0.90000000000000002,                    ! Thermal Absorptance
  0.69999999999999996,                    ! Solar Absorptance
  0.69999999999999996;                    ! Visible Absorptance

OS:Material,
  {1aa40f21-11b7-4f48-b304-af4a651bad8f}, ! Handle
  AtticFloor NonRes Insulation-1.76,      ! Name
  MediumRough,                            ! Roughness
  0.066610119320183195,                   ! Thickness
  0.049000000000000002,                   ! Conductivity
  265,                                    ! Density
  836.79999999999995,                     ! Specific Heat
  0.90000000000000002,                    ! Thermal Absorptance
  0.69999999999999996,                    ! Solar Absorptance
  0.69999999999999996;                    ! Visible Absorptance

OS:Material,
  {00fdc8d3-e146-4089-b324-abddb175d4e5}, ! Handle
  AtticFloor NonRes Insulation-2.00,      ! Name
  MediumRough,                            ! Roughness
  0.078378027354382193,                   ! Thickness
  0.049000000000000002,                   ! Conductivity
  265,                                    ! Density
  836.79999999999995,                     ! Specific Heat
  0.90000000000000002,                    ! Thermal Absorptance
  0.69999999999999996,                    ! Solar Absorptance
  0.69999999999999996;                    ! Visible Absorptance

OS:Material,
  {75323b84-f0a6-4d79-ad7a-e03a5dda0a43}, ! Handle
  AtticFloor NonRes Insulation-2.38,      ! Name
  MediumRough,                            ! Roughness
  0.096931035516407596,                   ! Thickness
  0.049000000000000002,                   ! Conductivity
  265,                                    ! Density
  836.79999999999995,                     ! Specific Heat
  0.90000000000000002,                    ! Thermal Absorptance
  0.69999999999999996,                    ! Solar Absorptance
  0.69999999999999996;                    ! Visible Absorptance

OS:Material,
  {6154148b-46d9-4ffd-8b2a-1d7df3a893f2}, ! Handle
  AtticFloor NonRes Insulation-2.45,      ! Name
  MediumRough,                            ! Roughness
  0.100170449639936,                      ! Thickness
  0.049000000000000002,                   ! Conductivity
  265,                                    ! Density
  836.79999999999995,                     ! Specific Heat
  0.90000000000000002,                    ! Thermal Absorptance
  0.69999999999999996,                    ! Solar Absorptance
  0.69999999999999996;                    ! Visible Absorptance

OS:Material,
  {7c05af27-0e7a-40d2-803d-6f7b7574afcc}, ! Handle
  AtticFloor NonRes Insulation-2.67,      ! Name
  MediumRough,                            ! Roughness
  0.111066660782713,                      ! Thickness
  0.049000000000000002,                   ! Conductivity
  265,                                    ! Density
  836.79999999999995,                     ! Specific Heat
  0.90000000000000002,                    ! Thermal Absorptance
  0.69999999999999996,                    ! Solar Absorptance
  0.69999999999999996;                    ! Visible Absorptance

OS:Material,
  {0f26d00a-5811-4413-b447-97be27420f66}, ! Handle
  AtticFloor NonRes Insulation-2.75,      ! Name
  MediumRough,                            ! Roughness
  0.115152739961254,                      ! Thickness
  0.049000000000000002,                   ! Conductivity
  265,                                    ! Density
  836.79999999999995,                     ! Specific Heat
  0.90000000000000002,                    ! Thermal Absorptance
  0.69999999999999996,                    ! Solar Absorptance
  0.69999999999999996;                    ! Visible Absorptance

OS:Material,
  {7a6ed0d6-3853-4608-b859-5471d832c6e8}, ! Handle
  AtticFloor NonRes Insulation-2.99,      ! Name
  MediumRough,                            ! Roughness
  0.12657991054531001,                    ! Thickness
  0.049000000000000002,                   ! Conductivity
  265,                                    ! Density
  836.79999999999995,                     ! Specific Heat
  0.90000000000000002,                    ! Thermal Absorptance
  0.69999999999999996,                    ! Solar Absorptance
  0.69999999999999996;                    ! Visible Absorptance

OS:Material,
  {e2b8aa4a-9446-40d7-b034-4a34b2c49a54}, ! Handle
  AtticFloor NonRes Insulation-3.04,      ! Name
  MediumRough,                            ! Roughness
  0.129101768881102,                      ! Thickness
  0.049000000000000002,                   ! Conductivity
  265,                                    ! Density
  836.79999999999995,                     ! Specific Heat
  0.90000000000000002,                    ! Thermal Absorptance
  0.69999999999999996,                    ! Solar Absorptance
  0.69999999999999996;                    ! Visible Absorptance

OS:Material,
  {99f7aac8-e787-482e-95c1-1ae186261db2}, ! Handle
  AtticFloor NonRes Insulation-3.32,      ! Name
  MediumRough,                            ! Roughness
  0.14581376530235901,                    ! Thickness
  0.049000000000000002,                   ! Conductivity
  265,                                    ! Density
  836.79999999999995,                     ! Specific Heat
  0.90000000000000002,                    ! Thermal Absorptance
  0.69999999999999996,                    ! Solar Absorptance
  0.69999999999999996;                    ! Visible Absorptance

OS:Material,
  {6dfd2050-5b1c-47c2-819d-9b7bff80b3ca}, ! Handle
  AtticFloor NonRes Insulation-3.45,      ! Name
  MediumRough,                            ! Roughness
  0.152199114340523,                      ! Thickness
  0.049000000000000002,                   ! Conductivity
  265,                                    ! Density
  836.79999999999995,                     ! Specific Heat
  0.90000000000000002,                    ! Thermal Absorptance
  0.69999999999999996,                    ! Solar Absorptance
  0.69999999999999996;                    ! Visible Absorptance

OS:Material,
  {99700484-f49a-47a3-974d-cc01596d1d8a}, ! Handle
  AtticFloor NonRes Insulation-3.59,      ! Name
  MediumRough,                            ! Roughness
  0.15910571636139501,                    ! Thickness
  0.049000000000000002,                   ! Conductivity
  265,                                    ! Density
  836.79999999999995,                     ! Specific Heat
  0.90000000000000002,                    ! Thermal Absorptance
  0.69999999999999996,                    ! Solar Absorptance
  0.69999999999999996;                    ! Visible Absorptance

OS:Material,
  {50008f60-6c0e-4059-a945-6d255b1abbaf}, ! Handle
  AtticFloor NonRes Insulation-3.67,      ! Name
  MediumRough,                            ! Roughness
  0.160099610925208,                      ! Thickness
  0.049000000000000002,                   ! Conductivity
  265,                                    ! Density
  836.79999999999995,                     ! Specific Heat
  0.90000000000000002,                    ! Thermal Absorptance
  0.69999999999999996,                    ! Solar Absorptance
  0.69999999999999996;                    ! Visible Absorptance

OS:Material,
  {cc0fd918-2576-4b53-a228-3a33f022735a}, ! Handle
  AtticFloor NonRes Insulation-3.83,      ! Name
  MediumRough,                            ! Roughness
  0.167916458049374,                      ! Thickness
  0.049000000000000002,                   ! Conductivity
  265,                                    ! Density
  836.79999999999995,                     ! Specific Heat
  0.90000000000000002,                    ! Thermal Absorptance
  0.69999999999999996,                    ! Solar Absorptance
  0.69999999999999996;                    ! Visible Absorptance

OS:Material,
  {4d7cc658-2ad3-4edb-840c-eebc5a48de29}, ! Handle
  AtticFloor NonRes Insulation-3.91,      ! Name
  MediumRough,                            ! Roughness
  0.17476068094203701,                    ! Thickness
  0.049000000000000002,                   ! Conductivity
  265,                                    ! Density
  836.79999999999995,                     ! Specific Heat
  0.90000000000000002,                    ! Thermal Absorptance
  0.69999999999999996,                    ! Solar Absorptance
  0.69999999999999996;                    ! Visible Absorptance

OS:Material,
  {ae253a7b-56f9-452f-9366-b334799276be}, ! Handle
  AtticFloor NonRes Insulation-4.40,      ! Name
  MediumRough,                            ! Roughness
  0.196057107696372,                      ! Thickness
  0.049000000000000002,                   ! Conductivity
  265,                                    ! Density
  836.79999999999995,                     ! Specific Heat
  0.90000000000000002,                    ! Thermal Absorptance
  0.69999999999999996,                    ! Solar Absorptance
  0.69999999999999996;                    ! Visible Absorptance

OS:Material,
  {2caaaba3-1cf6-435c-9920-541cbc417c27}, ! Handle
  AtticFloor NonRes Insulation-5.18,      ! Name
  MediumRough,                            ! Roughness
  0.30260955835061898,                    ! Thickness
  0.049000000000000002,                   ! Conductivity
  265,                                    ! Density
  836.79999999999995,                     ! Specific Heat
  0.90000000000000002,                    ! Thermal Absorptance
  0.69999999999999996,                    ! Solar Absorptance
  0.69999999999999996;                    ! Visible Absorptance

OS:Material,
  {e3a0e532-b1dc-481b-a9d4-1c739712f941}, ! Handle
  AtticFloor NonRes Insulation-5.68,      ! Name
  MediumRough,                            ! Roughness
  0.261367984993012,                      ! Thickness
  0.049000000000000002,                   ! Conductivity
  265,                                    ! Density
  836.79999999999995,                     ! Specific Heat
  0.90000000000000002,                    ! Thermal Absorptance
  0.69999999999999996,                    ! Solar Absorptance
  0.69999999999999996;                    ! Visible Absorptance

OS:Material,
  {a3f8941d-b99e-4e11-9940-fd3f7223b95f}, ! Handle
  AtticFloor NonRes Insulation-6.52,      ! Name
  MediumRough,                            ! Roughness
  0.30260955835061998,                    ! Thickness
  0.049000000000000002,                   ! Conductivity
  265,                                    ! Density
  836.79999999999995,                     ! Specific Heat
  0.90000000000000002,                    ! Thermal Absorptance
  0.69999999999999996,                    ! Solar Absorptance
  0.69999999999999996;                    ! Visible Absorptance

OS:Material,
  {8efe73e0-e1dd-49c8-ae18-98587f6b0323}, ! Handle
  AtticFloor Res Insulation-2.05,         ! Name
  MediumRough,                            ! Roughness
  0.080658629686591293,                   ! Thickness
  0.049000000000000002,                   ! Conductivity
  265,                                    ! Density
  836.79999999999995,                     ! Specific Heat
  0.90000000000000002,                    ! Thermal Absorptance
  0.69999999999999996,                    ! Solar Absorptance
  0.69999999999999996;                    ! Visible Absorptance

OS:Material,
  {ec1b17d5-9af2-409e-81da-b7551fc3b85d}, ! Handle
  AtticFloor Res Insulation-2.37,         ! Name
  MediumRough,                            ! Roughness
  0.096537354632839606,                   ! Thickness
  0.049000000000000002,                   ! Conductivity
  265,                                    ! Density
  836.79999999999995,                     ! Specific Heat
  0.90000000000000002,                    ! Thermal Absorptance
  0.69999999999999996,                    ! Solar Absorptance
  0.69999999999999996;                    ! Visible Absorptance

OS:Material,
  {f4310230-db57-4daf-b0da-b5534dedd1b8}, ! Handle
  AtticFloor Res Insulation-2.93,         ! Name
  MediumRough,                            ! Roughness
  0.124142114154045,                      ! Thickness
  0.049000000000000002,                   ! Conductivity
  265,                                    ! Density
  836.79999999999995,                     ! Specific Heat
  0.90000000000000002,                    ! Thermal Absorptance
  0.69999999999999996,                    ! Solar Absorptance
  0.69999999999999996;                    ! Visible Absorptance

OS:Material,
  {84dd3cff-b02a-4cd5-a667-2185043244b6}, ! Handle
  IEAD NonRes Roof Insulation-1.76,       ! Name
  MediumRough,                            ! Roughness
  0.073980502979871604,                   ! Thickness
  0.049000000000000002,                   ! Conductivity
  265,                                    ! Density
  836.79999999999995,                     ! Specific Heat
  0.90000000000000002,                    ! Thermal Absorptance
  0.69999999999999996,                    ! Solar Absorptance
  0.69999999999999996;                    ! Visible Absorptance

OS:Material,
  {7abae9cb-e35a-4c08-ab52-bb0ad5950d2e}, ! Handle
  IEAD NonRes Roof Insulation-1.98,       ! Name
  MediumRough,                            ! Roughness
  0.084646546965924593,                   ! Thickness
  0.049000000000000002,                   ! Conductivity
  265,                                    ! Density
  836.79999999999995,                     ! Specific Heat
  0.90000000000000002,                    ! Thermal Absorptance
  0.69999999999999996,                    ! Solar Absorptance
  0.69999999999999996;                    ! Visible Absorptance

OS:Material,
  {be4ef313-a346-44e2-b192-15afdc7cb9ed}, ! Handle
  IEAD NonRes Roof Insulation-2.00,       ! Name
  MediumRough,                            ! Roughness
  0.085748411014070505,                   ! Thickness
  0.049000000000000002,                   ! Conductivity
  265,                                    ! Density
  836.79999999999995,                     ! Specific Heat
  0.90000000000000002,                    ! Thermal Absorptance
  0.69999999999999996,                    ! Solar Absorptance
  0.69999999999999996;                    ! Visible Absorptance

OS:Material,
  {b748f0d0-9d83-49ef-8a07-d6eeb1dc65f4}, ! Handle