
OS:Version,
  {9aa41e99-e3f9-4fed-a714-83858aefb632}, !- Handle
  1.6.0;                                  !- Version Identifier

OS:Site,
  {7a94b8b7-574d-4f1e-ac9a-611ac4392977}, !- Handle
  Calgary Int'l_AB_CAN,                   !- Name
  51.12,                                  !- Latitude {deg}
  -114.02,                                !- Longitude {deg}
  -7,                                     !- Time Zone {hr}
  1084,                                   !- Elevation {m}
  City;                                   !- Terrain

OS:SimulationControl,
  {7a6a0834-36f4-487a-a020-86cd54ae6863}, !- Handle
  Yes,                                    !- Do Zone Sizing Calculation
  Yes,                                    !- Do System Sizing Calculation
  Yes,                                    !- Do Plant Sizing Calculation
  No,                                     !- Run Simulation for Sizing Periods
  Yes,                                    !- Run Simulation for Weather File Run Periods
  0.04,                                   !- Loads Convergence Tolerance Value
  0.2,                                    !- Temperature Convergence Tolerance Value {deltaC}
  FullInteriorAndExterior,                !- Solar Distribution
  25,                                     !- Maximum Number of Warmup Days
  6;                                      !- Minimum Number of Warmup Days

OS:ThermalZone,
  {ca76805c-619f-43d5-8b53-12e9b2e8062d}, !- Handle
  Dining Thermal Zone,                    !- Name
  1,                                      !- Multiplier
  ,                                       !- Ceiling Height {m}
  ,                                       !- Volume {m3}
  ,                                       !- Floor Area {m2}
  ,                                       !- Zone Inside Convection Algorithm
  ,                                       !- Zone Outside Convection Algorithm
  ,                                       !- Zone Conditioning Equipment List Name
  {692eb772-d6ff-4ea4-93c7-fc2346069ce9}, !- Zone Air Inlet Port List
  {5b865622-6b43-4ce6-98e9-298f5fb229c7}, !- Zone Air Exhaust Port List
  {e5bb8627-7a8b-47c4-a605-3c1652b59c51}, !- Zone Air Node Name
  ,                                       !- Zone Return Air Node Name
  ,                                       !- Primary Daylighting Control Name
  ,                                       !- Fraction of Zone Controlled by Primary Daylighting Control
  ,                                       !- Secondary Daylighting Control Name
  ,                                       !- Fraction of Zone Controlled by Secondary Daylighting Control
  ,                                       !- Illuminance Map Name
  ,                                       !- Group Rendering Name
  {f8a45c5b-a922-4532-94d9-3cec19e26a89}, !- Thermostat Name
  Yes;                                    !- Use Ideal Air Loads

OS:Node,
  {7687953b-8b76-46cd-ac06-ec6d0de13a2d}, !- Handle
  {8cefd51d-de3c-4698-afe9-9d4bbe1d3b9e}, !- Name
  {e5bb8627-7a8b-47c4-a605-3c1652b59c51}, !- Inlet Port
  ;                                       !- Outlet Port

OS:Connection,
  {e5bb8627-7a8b-47c4-a605-3c1652b59c51}, !- Handle
  {af85b933-c9b4-4c13-ad9f-83662913a245}, !- Name
  {ca76805c-619f-43d5-8b53-12e9b2e8062d}, !- Source Object
  11,                                     !- Outlet Port
  {7687953b-8b76-46cd-ac06-ec6d0de13a2d}, !- Target Object
  2;                                      !- Inlet Port

OS:PortList,
  {692eb772-d6ff-4ea4-93c7-fc2346069ce9}, !- Handle
  {be80b79c-47b2-4a1e-a75f-4ad07d2d53b8}, !- Name
  {ca76805c-619f-43d5-8b53-12e9b2e8062d}; !- HVAC Component

OS:PortList,
  {5b865622-6b43-4ce6-98e9-298f5fb229c7}, !- Handle
  {3b702c8a-8981-45c0-95a1-74db7b03a490}, !- Name
  {ca76805c-619f-43d5-8b53-12e9b2e8062d}; !- HVAC Component

OS:Sizing:Zone,
  {9df81057-cb48-4d3d-be62-e7dd308fc0c5}, !- Handle
  {ca76805c-619f-43d5-8b53-12e9b2e8062d}, !- Zone or ZoneList Name
  14,                                     !- Zone Cooling Design Supply Air Temperature {C}
  40,                                     !- Zone Heating Design Supply Air Temperature {C}
  0.0085,                                 !- Zone Cooling Design Supply Air Humidity Ratio {kg-H2O/kg-air}
  0.008,                                  !- Zone Heating Design Supply Air Humidity Ratio {kg-H2O/kg-air}
  ,                                       !- Zone Heating Sizing Factor
  ,                                       !- Zone Cooling Sizing Factor
  DesignDay,                              !- Cooling Design Air Flow Method
  ,                                       !- Cooling Design Air Flow Rate {m3/s}
  ,                                       !- Cooling Minimum Air Flow per Zone Floor Area {m3/s-m2}
  ,                                       !- Cooling Minimum Air Flow {m3/s}
  ,                                       !- Cooling Minimum Air Flow Fraction
  DesignDay,                              !- Heating Design Air Flow Method
  ,                                       !- Heating Design Air Flow Rate {m3/s}
  ,                                       !- Heating Maximum Air Flow per Zone Floor Area {m3/s-m2}
  ,                                       !- Heating Maximum Air Flow {m3/s}
  ,                                       !- Heating Maximum Air Flow Fraction
  ,                                       !- Design Zone Air Distribution Effectiveness in Cooling Mode
  ;                                       !- Design Zone Air Distribution Effectiveness in Heating Mode

OS:ZoneHVAC:EquipmentList,
  {c5187f4f-5b05-48f4-9ec1-169effa3ced8}, !- Handle
  {5a695798-df90-44d8-b80c-ecf7209c29b8}, !- Name
  {ca76805c-619f-43d5-8b53-12e9b2e8062d}; !- Thermal Zone

OS:Space,
  {f41c85cb-d16a-4ecd-a709-80e94b2b89a8}, !- Handle
  Dining,                                 !- Name
  {06583619-7abc-46f4-b8ce-c6a5567c3a09}, !- Space Type Name
  ,                                       !- Default Construction Set Name
  ,                                       !- Default Schedule Set Name
  0,                                      !- Direction of Relative North {deg}
  0,                                      !- X Origin {m}
  0,                                      !- Y Origin {m}
  0,                                      !- Z Origin {m}
  {f8ac92a0-f697-4209-a8e9-63ff40878146}, !- Building Story Name
  {ca76805c-619f-43d5-8b53-12e9b2e8062d}, !- Thermal Zone Name
  Yes,                                    !- Part of Total Floor Area
  ;                                       !- Design Specification Outdoor Air Object Name

OS:Surface,
  {cae9de5b-d726-4bc8-9044-1bf9fd17517e}, !- Handle
  attic-floor-dining,                     !- Name
  Floor,                                  !- Surface Type
  ,                                       !- Construction Name
  {c682794b-27da-4b05-a4eb-5838b7c8c235}, !- Space Name
  Surface,                                !- Outside Boundary Condition
  {7e95f2cf-1823-49b5-8fe0-28bbf909ee8d}, !- Outside Boundary Condition Object
  NoSun,                                  !- Sun Exposure
  NoWind,                                 !- Wind Exposure
  ,                                       !- View Factor to Ground
  ,                                       !- Number of Vertices
  22.6087, 16.4427, 0,                    !- X,Y,Z Vertex 1 {m}
  22.6087, 0, 0,                          !- X,Y,Z Vertex 2 {m}
  0, 0, 0,                                !- X,Y,Z Vertex 3 {m}
  0, 16.4427, 0;                          !- X,Y,Z Vertex 4 {m}

OS:ThermalZone,
  {63d60a17-f09c-4b49-9c8e-cfa550042e47}, !- Handle
  attic Thermal Zone,                     !- Name
  1,                                      !- Multiplier
  ,                                       !- Ceiling Height {m}
  ,                                       !- Volume {m3}
  ,                                       !- Floor Area {m2}
  ,                                       !- Zone Inside Convection Algorithm
  ,                                       !- Zone Outside Convection Algorithm
  ,                                       !- Zone Conditioning Equipment List Name
  {aed82e2c-0209-4cb8-a64e-675b22fee28b}, !- Zone Air Inlet Port List
  {6283705a-71b5-4e9b-beef-d8e6d2795477}, !- Zone Air Exhaust Port List
  {b5938879-be8e-46dc-bbf6-acacbc12032a}, !- Zone Air Node Name
  ,                                       !- Zone Return Air Node Name
  ,                                       !- Primary Daylighting Control Name
  ,                                       !- Fraction of Zone Controlled by Primary Daylighting Control
  ,                                       !- Secondary Daylighting Control Name
  ,                                       !- Fraction of Zone Controlled by Secondary Daylighting Control
  ,                                       !- Illuminance Map Name
  ,                                       !- Group Rendering Name
  {f8a45c5b-a922-4532-94d9-3cec19e26a89}, !- Thermostat Name
  Yes;                                    !- Use Ideal Air Loads

OS:Node,
  {d534aece-b496-46d1-b7f7-350116dbf2b8}, !- Handle
  {ca747499-9cd9-4c73-9aa7-b49a60c22c56}, !- Name
  {b5938879-be8e-46dc-bbf6-acacbc12032a}, !- Inlet Port
  ;                                       !- Outlet Port

OS:Connection,
  {b5938879-be8e-46dc-bbf6-acacbc12032a}, !- Handle
  {98c6b0ce-e35f-4dea-a91e-afa9485df6aa}, !- Name
  {63d60a17-f09c-4b49-9c8e-cfa550042e47}, !- Source Object
  11,                                     !- Outlet Port
  {d534aece-b496-46d1-b7f7-350116dbf2b8}, !- Target Object
  2;                                      !- Inlet Port

OS:PortList,
  {aed82e2c-0209-4cb8-a64e-675b22fee28b}, !- Handle
  {d8b8e4da-7887-45b0-a35d-8fe36d925006}, !- Name
  {63d60a17-f09c-4b49-9c8e-cfa550042e47}; !- HVAC Component

OS:PortList,
  {6283705a-71b5-4e9b-beef-d8e6d2795477}, !- Handle
  {e0c5448d-5661-4bae-b917-69a7b1687213}, !- Name
  {63d60a17-f09c-4b49-9c8e-cfa550042e47}; !- HVAC Component

OS:Sizing:Zone,
  {0d0de4b5-d918-4a24-8b81-27fe8f2f4c4d}, !- Handle
  {63d60a17-f09c-4b49-9c8e-cfa550042e47}, !- Zone or ZoneList Name
  14,                                     !- Zone Cooling Design Supply Air Temperature {C}
  40,                                     !- Zone Heating Design Supply Air Temperature {C}
  0.0085,                                 !- Zone Cooling Design Supply Air Humidity Ratio {kg-H2O/kg-air}
  0.008,                                  !- Zone Heating Design Supply Air Humidity Ratio {kg-H2O/kg-air}
  ,                                       !- Zone Heating Sizing Factor
  ,                                       !- Zone Cooling Sizing Factor
  DesignDay,                              !- Cooling Design Air Flow Method
  ,                                       !- Cooling Design Air Flow Rate {m3/s}
  ,                                       !- Cooling Minimum Air Flow per Zone Floor Area {m3/s-m2}
  ,                                       !- Cooling Minimum Air Flow {m3/s}
  ,                                       !- Cooling Minimum Air Flow Fraction
  DesignDay,                              !- Heating Design Air Flow Method
  ,                                       !- Heating Design Air Flow Rate {m3/s}
  ,                                       !- Heating Maximum Air Flow per Zone Floor Area {m3/s-m2}
  ,                                       !- Heating Maximum Air Flow {m3/s}
  ,                                       !- Heating Maximum Air Flow Fraction
  ,                                       !- Design Zone Air Distribution Effectiveness in Cooling Mode
  ;                                       !- Design Zone Air Distribution Effectiveness in Heating Mode

OS:ZoneHVAC:EquipmentList,
  {5424af42-e9b3-4da2-b235-1ad5f7fe00c6}, !- Handle
  {fc6f0cb0-211e-4b64-af47-847d7023556b}, !- Name
  {63d60a17-f09c-4b49-9c8e-cfa550042e47}; !- Thermal Zone

OS:Space,
  {c682794b-27da-4b05-a4eb-5838b7c8c235}, !- Handle
  attic,                                  !- Name
  {e1fe5897-8d66-4ea5-8308-93bfa3fc9bb0}, !- Space Type Name
  ,                                       !- Default Construction Set Name
  ,                                       !- Default Schedule Set Name
  0,                                      !- Direction of Relative North {deg}
  0,                                      !- X Origin {m}
  0,                                      !- Y Origin {m}
  3.0488,                                 !- Z Origin {m}
  {40477955-ed2a-40fa-94dd-3dfdb106f718}, !- Building Story Name
  {63d60a17-f09c-4b49-9c8e-cfa550042e47}, !- Thermal Zone Name
  No;                                     !- Part of Total Floor Area

OS:HeatBalanceAlgorithm,
  {27928403-e1ef-4821-8170-e41f130bf74f}, !- Handle
  ConductionTransferFunction,             !- Algorithm
  200;                                    !- Surface Temperature Upper Limit {F}

OS:Surface,
  {ac14fe4b-d5fa-4867-bccc-0dd639206b15}, !- Handle
  Dining_Wall_East,                       !- Name
  Wall,                                   !- Surface Type
  ,                                       !- Construction Name
  {f41c85cb-d16a-4ecd-a709-80e94b2b89a8}, !- Space Name
  Outdoors,                               !- Outside Boundary Condition
  ,                                       !- Outside Boundary Condition Object
  SunExposed,                             !- Sun Exposure
  WindExposed,                            !- Wind Exposure
  ,                                       !- View Factor to Ground
  ,                                       !- Number of Vertices
  22.6087, 0, 3.0488,                     !- X,Y,Z Vertex 1 {m}
  22.6087, 0, 0,                          !- X,Y,Z Vertex 2 {m}
  22.6087, 16.4427, 0,                    !- X,Y,Z Vertex 3 {m}
  22.6087, 16.4427, 3.0488;               !- X,Y,Z Vertex 4 {m}

OS:Surface,
  {674f47a4-2d38-4fa3-b565-f29d0825bbf2}, !- Handle
  Kitchen_Wall_North,                     !- Name
  Wall,                                   !- Surface Type
  ,                                       !- Construction Name
  {ca5747ba-d8be-4e22-a5af-d6d3d01652d8}, !- Space Name
  Outdoors,                               !- Outside Boundary Condition
  ,                                       !- Outside Boundary Condition Object
  SunExposed,                             !- Sun Exposure
  WindExposed,                            !- Wind Exposure
  ,                                       !- View Factor to Ground
  ,                                       !- Number of Vertices
  22.6087, 22.6087, 3.0488,               !- X,Y,Z Vertex 1 {m}
  22.6087, 22.6087, 0,                    !- X,Y,Z Vertex 2 {m}
  0, 22.6087, 0,                          !- X,Y,Z Vertex 3 {m}
  0, 22.6087, 3.0488;                     !- X,Y,Z Vertex 4 {m}

OS:ThermalZone,
  {d4df9f08-4073-4c53-8697-403281458a3d}, !- Handle
  Kitchen Thermal Zone,                   !- Name
  1,                                      !- Multiplier
  ,                                       !- Ceiling Height {m}
  ,                                       !- Volume {m3}
  ,                                       !- Floor Area {m2}
  ,                                       !- Zone Inside Convection Algorithm
  ,                                       !- Zone Outside Convection Algorithm
  ,                                       !- Zone Conditioning Equipment List Name
  {671a9f7d-2144-4631-8b7b-e2c8c1cabfa1}, !- Zone Air Inlet Port List
  {7c4344a6-0b87-45b9-b71d-884350e6c8cc}, !- Zone Air Exhaust Port List
  {7b2a1e97-6b97-43bb-ba64-aa43b375d6f6}, !- Zone Air Node Name
  ,                                       !- Zone Return Air Node Name
  ,                                       !- Primary Daylighting Control Name
  ,                                       !- Fraction of Zone Controlled by Primary Daylighting Control
  ,                                       !- Secondary Daylighting Control Name
  ,                                       !- Fraction of Zone Controlled by Secondary Daylighting Control
  ,                                       !- Illuminance Map Name
  ,                                       !- Group Rendering Name
  {f8a45c5b-a922-4532-94d9-3cec19e26a89}, !- Thermostat Name
  Yes;                                    !- Use Ideal Air Loads

OS:Node,
  {8bd3c789-3ca4-48be-ba6a-6ba8b1d9e52c}, !- Handle
  {85e471d5-7813-4728-8b47-c1f0601ba146}, !- Name
  {7b2a1e97-6b97-43bb-ba64-aa43b375d6f6}, !- Inlet Port
  ;                                       !- Outlet Port

OS:Connection,
  {7b2a1e97-6b97-43bb-ba64-aa43b375d6f6}, !- Handle
  {195de809-48cf-4615-95d4-75a24a9d70ea}, !- Name
  {d4df9f08-4073-4c53-8697-403281458a3d}, !- Source Object
  11,                                     !- Outlet Port
  {8bd3c789-3ca4-48be-ba6a-6ba8b1d9e52c}, !- Target Object
  2;                                      !- Inlet Port

OS:PortList,
  {671a9f7d-2144-4631-8b7b-e2c8c1cabfa1}, !- Handle
  {1e17978b-f0f8-4ca9-bbb7-456f4052ec32}, !- Name
  {d4df9f08-4073-4c53-8697-403281458a3d}; !- HVAC Component

OS:PortList,
  {7c4344a6-0b87-45b9-b71d-884350e6c8cc}, !- Handle
  {684a8fb2-bca2-4ed1-b64f-43b015a77b4b}, !- Name
  {d4df9f08-4073-4c53-8697-403281458a3d}; !- HVAC Component

OS:Sizing:Zone,
  {8f101981-0de5-48de-9f18-e936df8b2b2c}, !- Handle
  {d4df9f08-4073-4c53-8697-403281458a3d}, !- Zone or ZoneList Name
  14,                                     !- Zone Cooling Design Supply Air Temperature {C}
  40,                                     !- Zone Heating Design Supply Air Temperature {C}
  0.0085,                                 !- Zone Cooling Design Supply Air Humidity Ratio {kg-H2O/kg-air}
  0.008,                                  !- Zone Heating Design Supply Air Humidity Ratio {kg-H2O/kg-air}
  ,                                       !- Zone Heating Sizing Factor
  ,                                       !- Zone Cooling Sizing Factor
  DesignDay,                              !- Cooling Design Air Flow Method
  ,                                       !- Cooling Design Air Flow Rate {m3/s}
  ,                                       !- Cooling Minimum Air Flow per Zone Floor Area {m3/s-m2}
  ,                                       !- Cooling Minimum Air Flow {m3/s}
  ,                                       !- Cooling Minimum Air Flow Fraction
  DesignDay,                              !- Heating Design Air Flow Method
  ,                                       !- Heating Design Air Flow Rate {m3/s}
  ,                                       !- Heating Maximum Air Flow per Zone Floor Area {m3/s-m2}
  ,                                       !- Heating Maximum Air Flow {m3/s}
  ,                                       !- Heating Maximum Air Flow Fraction
  ,                                       !- Design Zone Air Distribution Effectiveness in Cooling Mode
  ;                                       !- Design Zone Air Distribution Effectiveness in Heating Mode

OS:ZoneHVAC:EquipmentList,
  {a526ebc0-b1e5-43bc-83e2-43df62c8cbbe}, !- Handle
  {69cd7582-6d9a-43d3-8c48-fbb6667642a5}, !- Name
  {d4df9f08-4073-4c53-8697-403281458a3d}; !- Thermal Zone

OS:Space,
  {ca5747ba-d8be-4e22-a5af-d6d3d01652d8}, !- Handle
  Kitchen,                                !- Name
  {e5d6eef5-15f4-47d5-82fc-3ca83c9220db}, !- Space Type Name
  ,                                       !- Default Construction Set Name
  ,                                       !- Default Schedule Set Name
  0,                                      !- Direction of Relative North {deg}
  0,                                      !- X Origin {m}
  0,                                      !- Y Origin {m}
  0,                                      !- Z Origin {m}
  {f8ac92a0-f697-4209-a8e9-63ff40878146}, !- Building Story Name
  {d4df9f08-4073-4c53-8697-403281458a3d}, !- Thermal Zone Name
  Yes,                                    !- Part of Total Floor Area
  ;                                       !- Design Specification Outdoor Air Object Name

OS:ShadowCalculation,
  {c924a8b6-b173-4644-9f8d-54d26ede6f4e}, !- Handle
  15000,                                  !- Calculation Frequency
  15000;                                  !- Maximum Figures in Shadow Overlap Calculations

OS:Curve:Biquadratic,
  {b5b49028-001d-454e-ab47-02ab6c2755e8}, !- Handle
  Measured_CoolCStandard10Ton_EIRFT,      !- Name
  0.9847,                                 !- Coefficient1 Constant
  -0.04285,                               !- Coefficient2 x
  0.0013562,                              !- Coefficient3 x**2
  0.009934,                               !- Coefficient4 y
  0.0006398,                              !- Coefficient5 y**2
  -0.001169,                              !- Coefficient6 x*y
  11.1,                                   !- Minimum Value of x {BasedOnField A2}
  29.4,                                   !- Maximum Value of x {BasedOnField A2}
  10,                                     !- Minimum Value of y {BasedOnField A3}
  50.3;                                   !- Maximum Value of y {BasedOnField A3}

OS:Curve:Quadratic,
  {9dbc32df-be72-4da1-b33a-a19376d178ae}, !- Handle
  Measured_CoolCStandard10Ton_CapFF,      !- Name
  0.7685,                                 !- Coefficient1 Constant
  0.2315,                                 !- Coefficient2 x
  0,                                      !- Coefficient3 x**2
  0.776,                                  !- Minimum Value of x {BasedOnField A2}
  1.197;                                  !- Maximum Value of x {BasedOnField A2}

OS:RunPeriod,
  {00de4555-528b-4206-8db8-d8f7ac16f4fd}, !- Handle
  Run Period 1,                           !- Name
  1,                                      !- Begin Month
  1,                                      !- Begin Day of Month
  12,                                     !- End Month
  31,                                     !- End Day of Month
  No,                                     !- Use Weather File Holidays and Special Days
  No,                                     !- Use Weather File Daylight Saving Period
  No,                                     !- Apply Weekend Holiday Rule
  Yes,                                    !- Use Weather File Rain Indicators
  Yes,                                    !- Use Weather File Snow Indicators
  1;                                      !- Number of Times Runperiod to be Repeated

OS:YearDescription,
  {040f2c6c-ce42-4e0f-a25a-9ad7b3ac451b}, !- Handle
  ,                                       !- Calendar Year
  Sunday;                                 !- Day of Week for Start Day

OS:Meter,
  {e9a3d423-b022-43b8-b2a9-45198fcf085b}, !- Handle
  ExteriorLights:Electricity,             !- Name
  hourly,                                 !- Reporting Frequency
  False,                                  !- Meter File Only
  False;                                  !- Cumulative

OS:Meter,
  {1b04f5bf-e5a9-4777-ad15-74b6675a720d}, !- Handle
  Heating:Electricity,                    !- Name
  hourly,                                 !- Reporting Frequency
  False,                                  !- Meter File Only
  False;                                  !- Cumulative

OS:Curve:Biquadratic,
  {dc65a626-13a3-40ff-922a-21834c364ba3}, !- Handle
  Measured_LowSpeedCoolEIRLSFT,           !- Name
  1.1389,                                 !- Coefficient1 Constant
  -0.04518,                               !- Coefficient2 x
  0.0014298,                              !- Coefficient3 x**2
  0.006044,                               !- Coefficient4 y
  0.0006745,                              !- Coefficient5 y**2
  -0.0012325,                             !- Coefficient6 x*y
  11.1,                                   !- Minimum Value of x {BasedOnField A2}
  29.4,                                   !- Maximum Value of x {BasedOnField A2}
  10,                                     !- Minimum Value of y {BasedOnField A3}
  50.3;                                   !- Maximum Value of y {BasedOnField A3}

OS:Meter,
  {b589d667-f8eb-4e5a-8eb0-8ea928152807}, !- Handle
  WaterSystems:Electricity,               !- Name
  hourly,                                 !- Reporting Frequency
  False,                                  !- Meter File Only
  False;                                  !- Cumulative

OS:Curve:Biquadratic,
  {03bd5a20-2545-4b15-9d71-590f3fb5cbe7}, !- Handle
  Cool-Cap-fT,                            !- Name
  0.9712123,                              !- Coefficient1 Constant
  -0.015275502,                           !- Coefficient2 x
  0.0014434524,                           !- Coefficient3 x**2
  -0.00039321,                            !- Coefficient4 y
  -6.8364e-006,                           !- Coefficient5 y**2
  -0.0002905956,                          !- Coefficient6 x*y
  -100,                                   !- Minimum Value of x {BasedOnField A2}
  100,                                    !- Maximum Value of x {BasedOnField A2}
  -100,                                   !- Minimum Value of y {BasedOnField A3}
  100;                                    !- Maximum Value of y {BasedOnField A3}

OS:Curve:Biquadratic,
  {1b0cea22-10d5-406e-a4d2-4752b6a766ce}, !- Handle
  Measured_CoolCStandard10Ton_CapFT,      !- Name
  0.52357,                                !- Coefficient1 Constant
  0.03478,                                !- Coefficient2 x
  0,                                      !- Coefficient3 x**2
  -0.001915,                              !- Coefficient4 y
  -0.00010838,                            !- Coefficient5 y**2
  0,                                      !- Coefficient6 x*y
  11.1,                                   !- Minimum Value of x {BasedOnField A2}
  29.4,                                   !- Maximum Value of x {BasedOnField A2}
  10,                                     !- Minimum Value of y {BasedOnField A3}
  50.3;                                   !- Maximum Value of y {BasedOnField A3}

OS:Curve:Quadratic,
  {80c40b7c-7eec-4309-9762-0e74290fab5a}, !- Handle
  Cool-PLF-fPLR,                          !- Name
  0.90949556,                             !- Coefficient1 Constant
  0.09864773,                             !- Coefficient2 x
  -0.00819488,                            !- Coefficient3 x**2
  0,                                      !- Minimum Value of x {BasedOnField A2}
  1,                                      !- Maximum Value of x {BasedOnField A2}
  0.7,                                    !- Minimum Curve Output {BasedOnField A3}
  1;                                      !- Maximum Curve Output {BasedOnField A3}

OS:Meter,
  {e0e433c1-40ed-4415-9a6b-47b50e6c306d}, !- Handle
  WaterSystems:Gas,                       !- Name
  hourly,                                 !- Reporting Frequency
  False,                                  !- Meter File Only
  False;                                  !- Cumulative

OS:Curve:Cubic,
  {bb4dce3b-fc9e-41a3-8ef3-45bb0f62db81}, !- Handle
  ConstantCubic,                          !- Name
  1,                                      !- Coefficient1 Constant
  0,                                      !- Coefficient2 x
  0,                                      !- Coefficient3 x**2
  0,                                      !- Coefficient4 x**3
  -100,                                   !- Minimum Value of x {BasedOnField A2}
  100;                                    !- Maximum Value of x {BasedOnField A2}

OS:Meter,
  {fdf5ce66-5cd4-46e7-bc63-4010bd904839}, !- Handle
  Fans:Electricity,                       !- Name
  hourly,                                 !- Reporting Frequency
  False,                                  !- Meter File Only
  False;                                  !- Cumulative

OS:Surface,
  {4c09ac07-7d2d-4c9c-b728-f0a106f96653}, !- Handle
  Kitchen_Floor,                          !- Name
  Floor,                                  !- Surface Type
  ,                                       !- Construction Name
  {ca5747ba-d8be-4e22-a5af-d6d3d01652d8}, !- Space Name
  Ground,                                 !- Outside Boundary Condition
  ,                                       !- Outside Boundary Condition Object
  NoSun,                                  !- Sun Exposure
  NoWind,                                 !- Wind Exposure
  ,                                       !- View Factor to Ground
  ,                                       !- Number of Vertices
  22.6087, 22.6087, 0,                    !- X,Y,Z Vertex 1 {m}
  22.6087, 16.4427, 0,                    !- X,Y,Z Vertex 2 {m}
  0, 16.4427, 0,                          !- X,Y,Z Vertex 3 {m}
  0, 22.6087, 0;                          !- X,Y,Z Vertex 4 {m}

OS:Curve:Biquadratic,
  {e0a70439-7e35-407e-b7b4-83de6927bcb0}, !- Handle
  Measured_LowSpeedCoolCapLSFT,           !- Name
  0.4136,                                 !- Coefficient1 Constant
  0.03105,                                !- Coefficient2 x
  0,                                      !- Coefficient3 x**2
  0.006952,                               !- Coefficient4 y
  -0.0002128,                             !- Coefficient5 y**2
  0,                                      !- Coefficient6 x*y
  11.1,                                   !- Minimum Value of x {BasedOnField A2}
  29.4,                                   !- Maximum Value of x {BasedOnField A2}
  10,                                     !- Minimum Value of y {BasedOnField A3}
  50.3;                                   !- Maximum Value of y {BasedOnField A3}

OS:Surface,
  {f0184f5c-f74b-46bd-9e07-56166248ecc8}, !- Handle
  attic-floor-kitchen,                    !- Name
  Floor,                                  !- Surface Type
  ,                                       !- Construction Name
  {c682794b-27da-4b05-a4eb-5838b7c8c235}, !- Space Name
  Surface,                                !- Outside Boundary Condition
  {886c09b7-9676-4326-b6d3-c5faeca808ec}, !- Outside Boundary Condition Object
  NoSun,                                  !- Sun Exposure
  NoWind,                                 !- Wind Exposure