
OS:Version,
  {5b168983-672c-4abe-af06-757ee47c6574}, !- Handle
  1.6.0;                                  !- Version Identifier

OS:Site,
  {c5cd2b9f-391b-4c1f-9800-48902b3e55b8}, !- Handle
  Calgary Int'l_AB_CAN,                   !- Name
  51.12,                                  !- Latitude {deg}
  -114.02,                                !- Longitude {deg}
  -7,                                     !- Time Zone {hr}
  1084,                                   !- Elevation {m}
  City;                                   !- Terrain

OS:SimulationControl,
  {7d243d2b-94db-4a67-bdbd-6361e274f25f}, !- Handle
  Yes,                                    !- Do Zone Sizing Calculation
  Yes,                                    !- Do System Sizing Calculation
  Yes,                                    !- Do Plant Sizing Calculation
  No,                                     !- Run Simulation for Sizing Periods
  Yes,                                    !- Run Simulation for Weather File Run Periods
  0.04,                                   !- Loads Convergence Tolerance Value
  0.2,                                    !- Temperature Convergence Tolerance Value {deltaC}
  FullInteriorAndExterior,                !- Solar Distribution
  25,                                     !- Maximum Number of Warmup Days
  6;                                      !- Minimum Number of Warmup Days

OS:Surface,
  {699e4ef2-66b7-4418-b518-927143454d26}, !- Handle
  Office2_Mult5_Flr_5_Wall_East,          !- Name
  Wall,                                   !- Surface Type
  ,                                       !- Construction Name
  {ddf622a2-a4d1-4f8a-a87d-40ae855b584c}, !- Space Name
  Outdoors,                               !- Outside Boundary Condition
  ,                                       !- Outside Boundary Condition Object
  SunExposed,                             !- Sun Exposure
  WindExposed,                            !- Wind Exposure
  ,                                       !- View Factor to Ground
  ,                                       !- Number of Vertices
  9.144, 7.622, 21.3415,                  !- X,Y,Z Vertex 1 {m}
  9.144, 7.622, 17.0732,                  !- X,Y,Z Vertex 2 {m}
  9.144, 15.24, 17.0732,                  !- X,Y,Z Vertex 3 {m}
  9.144, 15.24, 21.3415;                  !- X,Y,Z Vertex 4 {m}

OS:ThermalZone,
  {f7bd4911-235b-46c7-99e1-ac5f993eaa9c}, !- Handle
  Office2_Mult5_Flr_5 Thermal Zone,       !- Name
  5,                                      !- Multiplier
  ,                                       !- Ceiling Height {m}
  ,                                       !- Volume {m3}
  ,                                       !- Floor Area {m2}
  ,                                       !- Zone Inside Convection Algorithm
  ,                                       !- Zone Outside Convection Algorithm
  ,                                       !- Zone Conditioning Equipment List Name
  {86af9067-dacf-48d7-b647-ca5d7deb3335}, !- Zone Air Inlet Port List
  {d85d737b-6956-4332-9a18-b318839e573c}, !- Zone Air Exhaust Port List
  {d7d1ba71-e680-4085-94fe-80f55665f4a4}, !- Zone Air Node Name
  ,                                       !- Zone Return Air Node Name
  ,                                       !- Primary Daylighting Control Name
  ,                                       !- Fraction of Zone Controlled by Primary Daylighting Control
  ,                                       !- Secondary Daylighting Control Name
  ,                                       !- Fraction of Zone Controlled by Secondary Daylighting Control
  ,                                       !- Illuminance Map Name
  ,                                       !- Group Rendering Name
  {a7593889-a903-4cf4-9db6-3a2eed9aaf7b}, !- Thermostat Name
  Yes;                                    !- Use Ideal Air Loads

OS:Node,
  {a618e86d-a4f0-4f87-859f-c85a3c1449fb}, !- Handle
  {7b3c3fa6-1d46-4afa-b8fe-18bec6555c3d}, !- Name
  {d7d1ba71-e680-4085-94fe-80f55665f4a4}, !- Inlet Port
  ;                                       !- Outlet Port

OS:Connection,
  {d7d1ba71-e680-4085-94fe-80f55665f4a4}, !- Handle
  {d3a8985f-77ec-44b0-a169-686362d0e638}, !- Name
  {f7bd4911-235b-46c7-99e1-ac5f993eaa9c}, !- Source Object
  11,                                     !- Outlet Port
  {a618e86d-a4f0-4f87-859f-c85a3c1449fb}, !- Target Object
  2;                                      !- Inlet Port

OS:PortList,
  {86af9067-dacf-48d7-b647-ca5d7deb3335}, !- Handle
  {5ef7c905-fbf0-41af-b631-374065320c28}, !- Name
  {f7bd4911-235b-46c7-99e1-ac5f993eaa9c}; !- HVAC Component

OS:PortList,
  {d85d737b-6956-4332-9a18-b318839e573c}, !- Handle
  {dd302e79-e2b7-4f49-867c-ef41b9643d0f}, !- Name
  {f7bd4911-235b-46c7-99e1-ac5f993eaa9c}; !- HVAC Component

OS:Sizing:Zone,
  {4817d555-7f9e-4287-92c7-4b0dc8ba4964}, !- Handle
  {f7bd4911-235b-46c7-99e1-ac5f993eaa9c}, !- Zone or ZoneList Name
  11.1,                                   !- Zone Cooling Design Supply Air Temperature {C}
  50,                                     !- Zone Heating Design Supply Air Temperature {C}
  0.0085,                                 !- Zone Cooling Design Supply Air Humidity Ratio {kg-H2O/kg-air}
  0.008,                                  !- Zone Heating Design Supply Air Humidity Ratio {kg-H2O/kg-air}
  ,                                       !- Zone Heating Sizing Factor
  ,                                       !- Zone Cooling Sizing Factor
  DesignDay,                              !- Cooling Design Air Flow Method
  ,                                       !- Cooling Design Air Flow Rate {m3/s}
  ,                                       !- Cooling Minimum Air Flow per Zone Floor Area {m3/s-m2}
  ,                                       !- Cooling Minimum Air Flow {m3/s}
  ,                                       !- Cooling Minimum Air Flow Fraction
  DesignDay,                              !- Heating Design Air Flow Method
  ,                                       !- Heating Design Air Flow Rate {m3/s}
  ,                                       !- Heating Maximum Air Flow per Zone Floor Area {m3/s-m2}
  ,                                       !- Heating Maximum Air Flow {m3/s}
  ,                                       !- Heating Maximum Air Flow Fraction
  ,                                       !- Design Zone Air Distribution Effectiveness in Cooling Mode
  ;                                       !- Design Zone Air Distribution Effectiveness in Heating Mode

OS:ZoneHVAC:EquipmentList,
  {4c1349b0-7805-4067-b768-c19e130bfbc3}, !- Handle
  {68fc76ca-394d-464a-8938-0353eeb9979d}, !- Name
  {f7bd4911-235b-46c7-99e1-ac5f993eaa9c}; !- Thermal Zone

OS:Space,
  {ddf622a2-a4d1-4f8a-a87d-40ae855b584c}, !- Handle
  Office2_Mult5_Flr_5,                    !- Name
  {c9a3a317-ac13-42d2-bb14-405c12e57cc5}, !- Space Type Name
  ,                                       !- Default Construction Set Name
  ,                                       !- Default Schedule Set Name
  0,                                      !- Direction of Relative North {deg}
  0,                                      !- X Origin {m}
  0,                                      !- Y Origin {m}
  0,                                      !- Z Origin {m}
  {df2811f6-629e-4e63-b58e-81a9c391f932}, !- Building Story Name
  {f7bd4911-235b-46c7-99e1-ac5f993eaa9c}, !- Thermal Zone Name
  Yes,                                    !- Part of Total Floor Area
  ;                                       !- Design Specification Outdoor Air Object Name

OS:Surface,
  {f42f83e7-93f2-425b-88df-3481f041872d}, !- Handle
  Corridor_SE_Flr_3_Wall_2_South,         !- Name
  Wall,                                   !- Surface Type
  ,                                       !- Construction Name
  {997900f8-e472-4122-8672-c8c880ed50ea}, !- Space Name
  Outdoors,                               !- Outside Boundary Condition
  ,                                       !- Outside Boundary Condition Object
  SunExposed,                             !- Sun Exposure
  WindExposed,                            !- Wind Exposure
  ,                                       !- View Factor to Ground
  ,                                       !- Number of Vertices
  4.572, 4.572, 12.8049,                  !- X,Y,Z Vertex 1 {m}
  4.572, 4.572, 8.5366,                   !- X,Y,Z Vertex 2 {m}
  28.956, 4.572, 8.5366,                  !- X,Y,Z Vertex 3 {m}
  28.956, 4.572, 12.8049;                 !- X,Y,Z Vertex 4 {m}

OS:ThermalZone,
  {096fa798-b25f-4a5f-9932-1f87cf6e2784}, !- Handle
  Corridor_SE_Flr_3 Thermal Zone,         !- Name
  1,                                      !- Multiplier
  ,                                       !- Ceiling Height {m}
  ,                                       !- Volume {m3}
  ,                                       !- Floor Area {m2}
  ,                                       !- Zone Inside Convection Algorithm
  ,                                       !- Zone Outside Convection Algorithm
  ,                                       !- Zone Conditioning Equipment List Name
  {0725e9e9-5211-4fe7-a096-08136636efe3}, !- Zone Air Inlet Port List
  {6af0df54-4621-4341-94cf-f8bf8630b77d}, !- Zone Air Exhaust Port List
  {0725eae3-f6af-4800-94d6-d68853e724d0}, !- Zone Air Node Name
  ,                                       !- Zone Return Air Node Name
  ,                                       !- Primary Daylighting Control Name
  ,                                       !- Fraction of Zone Controlled by Primary Daylighting Control
  ,                                       !- Secondary Daylighting Control Name
  ,                                       !- Fraction of Zone Controlled by Secondary Daylighting Control
  ,                                       !- Illuminance Map Name
  ,                                       !- Group Rendering Name
  {24c57f5c-18ea-4f25-86a1-5bbf9cf537f9}, !- Thermostat Name
  Yes;                                    !- Use Ideal Air Loads

OS:Node,
  {d1c889a2-9d41-4257-a095-ac8ff5d641c4}, !- Handle
  {205507a0-b62e-4097-b441-45ea7c8c5652}, !- Name
  {0725eae3-f6af-4800-94d6-d68853e724d0}, !- Inlet Port
  ;                                       !- Outlet Port

OS:Connection,
  {0725eae3-f6af-4800-94d6-d68853e724d0}, !- Handle
  {787c0297-56be-43c0-99ae-213caf58dc31}, !- Name
  {096fa798-b25f-4a5f-9932-1f87cf6e2784}, !- Source Object
  11,                                     !- Outlet Port
  {d1c889a2-9d41-4257-a095-ac8ff5d641c4}, !- Target Object
  2;                                      !- Inlet Port

OS:PortList,
  {0725e9e9-5211-4fe7-a096-08136636efe3}, !- Handle
  {5169894a-2cea-4164-8867-6fbd608b3526}, !- Name
  {096fa798-b25f-4a5f-9932-1f87cf6e2784}; !- HVAC Component

OS:PortList,
  {6af0df54-4621-4341-94cf-f8bf8630b77d}, !- Handle
  {1023926b-24fe-44ce-88b6-1c18e3b187d9}, !- Name
  {096fa798-b25f-4a5f-9932-1f87cf6e2784}; !- HVAC Component

OS:Sizing:Zone,
  {f0daa63f-700a-47ac-be01-b6096f36e2b5}, !- Handle
  {096fa798-b25f-4a5f-9932-1f87cf6e2784}, !- Zone or ZoneList Name
  11.1,                                   !- Zone Cooling Design Supply Air Temperature {C}
  50,                                     !- Zone Heating Design Supply Air Temperature {C}
  0.0085,                                 !- Zone Cooling Design Supply Air Humidity Ratio {kg-H2O/kg-air}
  0.008,                                  !- Zone Heating Design Supply Air Humidity Ratio {kg-H2O/kg-air}
  ,                                       !- Zone Heating Sizing Factor
  ,                                       !- Zone Cooling Sizing Factor
  DesignDayWithLimit,                     !- Cooling Design Air Flow Method
  ,                                       !- Cooling Design Air Flow Rate {m3/s}
  ,                                       !- Cooling Minimum Air Flow per Zone Floor Area {m3/s-m2}
  1.343822,                               !- Cooling Minimum Air Flow {m3/s}
  ,                                       !- Cooling Minimum Air Flow Fraction
  DesignDay,                              !- Heating Design Air Flow Method
  ,                                       !- Heating Design Air Flow Rate {m3/s}
  ,                                       !- Heating Maximum Air Flow per Zone Floor Area {m3/s-m2}
  ,                                       !- Heating Maximum Air Flow {m3/s}
  ,                                       !- Heating Maximum Air Flow Fraction
  ,                                       !- Design Zone Air Distribution Effectiveness in Cooling Mode
  ;                                       !- Design Zone Air Distribution Effectiveness in Heating Mode

OS:ZoneHVAC:EquipmentList,
  {c557876c-c889-4082-a8f7-97cb0c2c2389}, !- Handle
  {533e3388-864f-44af-9649-bcc53681c353}, !- Name
  {096fa798-b25f-4a5f-9932-1f87cf6e2784}; !- Thermal Zone

OS:Space,
  {997900f8-e472-4122-8672-c8c880ed50ea}, !- Handle
  Corridor_SE_Flr_3,                      !- Name
  {754fc37e-6cce-4811-b93e-4e6cc407b944}, !- Space Type Name
  ,                                       !- Default Construction Set Name
  ,                                       !- Default Schedule Set Name
  0,                                      !- Direction of Relative North {deg}
  0,                                      !- X Origin {m}
  0,                                      !- Y Origin {m}
  0,                                      !- Z Origin {m}
  {df2811f6-629e-4e63-b58e-81a9c391f932}, !- Building Story Name
  {096fa798-b25f-4a5f-9932-1f87cf6e2784}, !- Thermal Zone Name
  Yes,                                    !- Part of Total Floor Area
  ;                                       !- Design Specification Outdoor Air Object Name

OS:Surface,
  {8144abac-98f3-4421-8a22-376676486a0e}, !- Handle
  Corridor_SE_Flr_3_Wall_4_West,          !- Name
  Wall,                                   !- Surface Type
  ,                                       !- Construction Name
  {997900f8-e472-4122-8672-c8c880ed50ea}, !- Space Name
  Outdoors,                               !- Outside Boundary Condition
  ,                                       !- Outside Boundary Condition Object
  SunExposed,                             !- Sun Exposure
  WindExposed,                            !- Wind Exposure
  ,                                       !- View Factor to Ground
  ,                                       !- Number of Vertices
  28.956, 4.572, 12.8049,                 !- X,Y,Z Vertex 1 {m}
  28.956, 4.572, 8.5366,                  !- X,Y,Z Vertex 2 {m}
  28.956, 0, 8.5366,                      !- X,Y,Z Vertex 3 {m}
  28.956, 0, 12.8049;                     !- X,Y,Z Vertex 4 {m}

OS:Surface,
  {d7542d30-e484-475a-beff-561bcf4d34b9}, !- Handle
  IC_PatRoom1_Mult5_Flr_2_Wall_North,     !- Name
  Wall,                                   !- Surface Type
  ,                                       !- Construction Name
  {0c19bcbd-40db-44b3-a6a3-2ec9bf34c4d3}, !- Space Name
  Outdoors,                               !- Outside Boundary Condition
  ,                                       !- Outside Boundary Condition Object
  SunExposed,                             !- Sun Exposure
  WindExposed,                            !- Wind Exposure
  ,                                       !- View Factor to Ground
  ,                                       !- Number of Vertices
  28.956, 53.34, 8.5366,                  !- X,Y,Z Vertex 1 {m}
  28.956, 53.34, 4.2683,                  !- X,Y,Z Vertex 2 {m}
  24.384, 53.34, 4.2683,                  !- X,Y,Z Vertex 3 {m}
  24.384, 53.34, 8.5366;                  !- X,Y,Z Vertex 4 {m}

OS:ThermalZone,
  {b4facaa1-985d-4b89-a748-c652a49b70f4}, !- Handle
  IC_PatRoom1_Mult5_Flr_2 Thermal Zone,   !- Name
  5,                                      !- Multiplier
  ,                                       !- Ceiling Height {m}
  ,                                       !- Volume {m3}
  ,                                       !- Floor Area {m2}
  ,                                       !- Zone Inside Convection Algorithm
  ,                                       !- Zone Outside Convection Algorithm
  ,                                       !- Zone Conditioning Equipment List Name
  {d5d870cd-f9c1-41d2-85ef-cec88d7d33bd}, !- Zone Air Inlet Port List
  {9dedcc34-7ad4-4bf8-b247-73836ade9b3a}, !- Zone Air Exhaust Port List
  {97828bb3-a9a1-47b6-a51e-9f7d955fdcc2}, !- Zone Air Node Name
  ,                                       !- Zone Return Air Node Name
  ,                                       !- Primary Daylighting Control Name
  ,                                       !- Fraction of Zone Controlled by Primary Daylighting Control
  ,                                       !- Secondary Daylighting Control Name
  ,                                       !- Fraction of Zone Controlled by Secondary Daylighting Control
  ,                                       !- Illuminance Map Name
  ,                                       !- Group Rendering Name
  {24c57f5c-18ea-4f25-86a1-5bbf9cf537f9}, !- Thermostat Name
  Yes;                                    !- Use Ideal Air Loads

OS:Node,
  {8cd7a0b2-b69a-408b-8d85-8c7ae4fa8919}, !- Handle
  {9943c72a-7bdd-4d83-9c84-536aa1f1bf02}, !- Name
  {97828bb3-a9a1-47b6-a51e-9f7d955fdcc2}, !- Inlet Port
  ;                                       !- Outlet Port

OS:Connection,
  {97828bb3-a9a1-47b6-a51e-9f7d955fdcc2}, !- Handle
  {116fcb87-71d7-43bf-b53d-2036ef3954b8}, !- Name
  {b4facaa1-985d-4b89-a748-c652a49b70f4}, !- Source Object
  11,                                     !- Outlet Port
  {8cd7a0b2-b69a-408b-8d85-8c7ae4fa8919}, !- Target Object
  2;                                      !- Inlet Port

OS:PortList,
  {d5d870cd-f9c1-41d2-85ef-cec88d7d33bd}, !- Handle
  {dbcf9498-d077-4915-b05e-1a1b57cc9297}, !- Name
  {b4facaa1-985d-4b89-a748-c652a49b70f4}; !- HVAC Component

OS:PortList,
  {9dedcc34-7ad4-4bf8-b247-73836ade9b3a}, !- Handle
  {a795c5aa-95ea-49eb-8287-28675b176c7a}, !- Name
  {b4facaa1-985d-4b89-a748-c652a49b70f4}; !- HVAC Component

OS:Sizing:Zone,
  {be690a79-0ee0-4161-ac9d-59653aeb13c4}, !- Handle
  {b4facaa1-985d-4b89-a748-c652a49b70f4}, !- Zone or ZoneList Name
  11.1,                                   !- Zone Cooling Design Supply Air Temperature {C}
  50,                                     !- Zone Heating Design Supply Air Temperature {C}
  0.0085,                                 !- Zone Cooling Design Supply Air Humidity Ratio {kg-H2O/kg-air}
  0.008,                                  !- Zone Heating Design Supply Air Humidity Ratio {kg-H2O/kg-air}
  ,                                       !- Zone Heating Sizing Factor
  ,                                       !- Zone Cooling Sizing Factor
  DesignDayWithLimit,                     !- Cooling Design Air Flow Method
  ,                                       !- Cooling Design Air Flow Rate {m3/s}
  ,                                       !- Cooling Minimum Air Flow per Zone Floor Area {m3/s-m2}
  0.148683,                               !- Cooling Minimum Air Flow {m3/s}
  ,                                       !- Cooling Minimum Air Flow Fraction
  DesignDay,                              !- Heating Design Air Flow Method
  ,                                       !- Heating Design Air Flow Rate {m3/s}
  ,                                       !- Heating Maximum Air Flow per Zone Floor Area {m3/s-m2}
  ,                                       !- Heating Maximum Air Flow {m3/s}
  ,                                       !- Heating Maximum Air Flow Fraction
  ,                                       !- Design Zone Air Distribution Effectiveness in Cooling Mode
  ;                                       !- Design Zone Air Distribution Effectiveness in Heating Mode

OS:ZoneHVAC:EquipmentList,
  {5be79364-dd99-4c66-9fb4-e9da41cea756}, !- Handle
  {adb87f9a-7244-4f16-9190-1e364dc7c87e}, !- Name
  {b4facaa1-985d-4b89-a748-c652a49b70f4}; !- Thermal Zone

OS:Space,
  {0c19bcbd-40db-44b3-a6a3-2ec9bf34c4d3}, !- Handle
  IC_PatRoom1_Mult5_Flr_2,                !- Name
  {264ccd96-2f0b-4d8b-b8ce-33ff59d84dca}, !- Space Type Name
  ,                                       !- Default Construction Set Name
  ,                                       !- Default Schedule Set Name
  0,                                      !- Direction of Relative North {deg}
  0,                                      !- X Origin {m}
  0,                                      !- Y Origin {m}
  0,                                      !- Z Origin {m}
  {df2811f6-629e-4e63-b58e-81a9c391f932}, !- Building Story Name
  {b4facaa1-985d-4b89-a748-c652a49b70f4}, !- Thermal Zone Name
  Yes,                                    !- Part of Total Floor Area
  ;                                       !- Design Specification Outdoor Air Object Name

OS:ThermalZone,
  {9be4ce0c-5bc5-4efc-9c90-5e28fa518a35}, !- Handle
  Office1_Mult4_Flr_1 Thermal Zone,       !- Name
  4,                                      !- Multiplier
  ,                                       !- Ceiling Height {m}
  ,                                       !- Volume {m3}
  ,                                       !- Floor Area {m2}
  ,                                       !- Zone Inside Convection Algorithm
  ,                                       !- Zone Outside Convection Algorithm
  ,                                       !- Zone Conditioning Equipment List Name
  {2f428e6c-054b-45ca-8c86-762635c67fbe}, !- Zone Air Inlet Port List
  {a7d3ba09-12bd-4364-9b36-543a8fd79b14}, !- Zone Air Exhaust Port List
  {9c402c5c-b956-400a-b9e3-4ab0988f795d}, !- Zone Air Node Name
  ,                                       !- Zone Return Air Node Name
  ,                                       !- Primary Daylighting Control Name
  ,                                       !- Fraction of Zone Controlled by Primary Daylighting Control
  ,                                       !- Secondary Daylighting Control Name
  ,                                       !- Fraction of Zone Controlled by Secondary Daylighting Control
  ,                                       !- Illuminance Map Name
  ,                                       !- Group Rendering Name
  {a7593889-a903-4cf4-9db6-3a2eed9aaf7b}, !- Thermostat Name
  Yes;                                    !- Use Ideal Air Loads

OS:Node,
  {2079a1e4-5b04-4052-af61-c2b774a4708a}, !- Handle
  {1ba39807-f6e6-4364-afa6-779c8fe51833}, !- Name
  {9c402c5c-b956-400a-b9e3-4ab0988f795d}, !- Inlet Port
  ;                                       !- Outlet Port

OS:Connection,
  {9c402c5c-b956-400a-b9e3-4ab0988f795d}, !- Handle
  {e1f9aedc-d2cd-4aa2-a287-c663891b7e7d}, !- Name
  {9be4ce0c-5bc5-4efc-9c90-5e28fa518a35}, !- Source Object
  11,                                     !- Outlet Port
  {2079a1e4-5b04-4052-af61-c2b774a4708a}, !- Target Object
  2;                                      !- Inlet Port

OS:PortList,
  {2f428e6c-054b-45ca-8c86-762635c67fbe}, !- Handle
  {fb51f3d7-8888-4557-826b-c91eba6e3004}, !- Name
  {9be4ce0c-5bc5-4efc-9c90-5e28fa518a35}; !- HVAC Component

OS:PortList,
  {a7d3ba09-12bd-4364-9b36-543a8fd79b14}, !- Handle
  {a3a97e88-c018-4dbd-a49a-4acfbf49640d}, !- Name
  {9be4ce0c-5bc5-4efc-9c90-5e28fa518a35}; !- HVAC Component

OS:Sizing:Zone,
  {2fc1a6a8-4863-41d2-a48b-4d117165e9d1}, !- Handle
  {9be4ce0c-5bc5-4efc-9c90-5e28fa518a35}, !- Zone or ZoneList Name
  11.1,                                   !- Zone Cooling Design Supply Air Temperature {C}
  50,                                     !- Zone Heating Design Supply Air Temperature {C}
  0.0085,                                 !- Zone Cooling Design Supply Air Humidity Ratio {kg-H2O/kg-air}
  0.008,                                  !- Zone Heating Design Supply Air Humidity Ratio {kg-H2O/kg-air}
  ,                                       !- Zone Heating Sizing Factor
  ,                                       !- Zone Cooling Sizing Factor
  DesignDay,                              !- Cooling Design Air Flow Method
  ,                                       !- Cooling Design Air Flow Rate {m3/s}
  ,                                       !- Cooling Minimum Air Flow per Zone Floor Area {m3/s-m2}
  ,                                       !- Cooling Minimum Air Flow {m3/s}
  ,                                       !- Cooling Minimum Air Flow Fraction
  DesignDay,                              !- Heating Design Air Flow Method
  ,                                       !- Heating Design Air Flow Rate {m3/s}
  ,                                       !- Heating Maximum Air Flow per Zone Floor Area {m3/s-m2}
  ,                                       !- Heating Maximum Air Flow {m3/s}
  ,                                       !- Heating Maximum Air Flow Fraction
  ,                                       !- Design Zone Air Distribution Effectiveness in Cooling Mode
  ;                                       !- Design Zone Air Distribution Effectiveness in Heating Mode

OS:ZoneHVAC:EquipmentList,
  {c5a29c6c-016e-4bf4-b74c-0b51342d86fd}, !- Handle
  {5971c508-5fd1-43c0-bfd6-51d56899edb5}, !- Name
  {9be4ce0c-5bc5-4efc-9c90-5e28fa518a35}; !- Thermal Zone

OS:Space,
  {f7076a5c-7381-4d00-ab88-a07803b9488a}, !- Handle
  Office1_Mult4_Flr_1,                    !- Name
  {c9a3a317-ac13-42d2-bb14-405c12e57cc5}, !- Space Type Name
  ,                                       !- Default Construction Set Name
  ,                                       !- Default Schedule Set Name
  0,                                      !- Direction of Relative North {deg}
  0,                                      !- X Origin {m}
  0,                                      !- Y Origin {m}
  0,                                      !- Z Origin {m}
  {df2811f6-629e-4e63-b58e-81a9c391f932}, !- Building Story Name
  {9be4ce0c-5bc5-4efc-9c90-5e28fa518a35}, !- Thermal Zone Name
  Yes,                                    !- Part of Total Floor Area
  ;                                       !- Design Specification Outdoor Air Object Name

OS:ThermalZone,
  {a5f8db81-5933-4eac-a2da-93d9eeb9e032}, !- Handle
  OR_NurseStn_Lobby_Flr_2 Thermal Zone,   !- Name
  1,                                      !- Multiplier
  ,                                       !- Ceiling Height {m}
  ,                                       !- Volume {m3}
  ,                                       !- Floor Area {m2}
  ,                                       !- Zone Inside Convection Algorithm
  ,                                       !- Zone Outside Convection Algorithm
  ,                                       !- Zone Conditioning Equipment List Name
  {899c7f6f-d9b6-4234-827b-a618181765d1}, !- Zone Air Inlet Port List
  {c7b1e195-7e5f-44fb-81ed-bb1bf5e5968d}, !- Zone Air Exhaust Port List
  {348f6209-5056-41d4-a0fb-eb2a8aa648ff}, !- Zone Air Node Name
  ,                                       !- Zone Return Air Node Name
  ,                                       !- Primary Daylighting Control Name
  ,                                       !- Fraction of Zone Controlled by Primary Daylighting Control
  ,                                       !- Secondary Daylighting Control Name
  ,                                       !- Fraction of Zone Controlled by Secondary Daylighting Control
  ,                                       !- Illuminance Map Name
  ,                                       !- Group Rendering Name
  {24c57f5c-18ea-4f25-86a1-5bbf9cf537f9}, !- Thermostat Name
  Yes;                                    !- Use Ideal Air Loads

OS:Node,
  {890743c7-6736-4710-9f96-c3e8e3d49626}, !- Handle
  {2f56a868-91d1-4d1e-bc84-78c67fce50e7}, !- Name
  {348f6209-5056-41d4-a0fb-eb2a8aa648ff}, !- Inlet Port
  ;                                       !- Outlet Port

OS:Connection,
  {348f6209-5056-41d4-a0fb-eb2a8aa648ff}, !- Handle
  {6d529d2b-29dd-404e-a630-e3370fb5376a}, !- Name
  {a5f8db81-5933-4eac-a2da-93d9eeb9e032}, !- Source Object
  11,                                     !- Outlet Port
  {890743c7-6736-4710-9f96-c3e8e3d49626}, !- Target Object
  2;                                      !- Inlet Port

OS:PortList,
  {899c7f6f-d9b6-4234-827b-a618181765d1}, !- Handle
  {4696fbdb-877a-4baa-81cd-752ec5c98463}, !- Name
  {a5f8db81-5933-4eac-a2da-93d9eeb9e032}; !- HVAC Component

OS:PortList,
  {c7b1e195-7e5f-44fb-81ed-bb1bf5e5968d}, !- Handle
  {c12cd859-ef03-4e00-a928-08818cd4d61d}, !- Name
  {a5f8db81-5933-4eac-a2da-93d9eeb9e032}; !- HVAC Component

OS:Sizing:Zone,
  {53be993d-c391-441c-9fbc-e892a01d3e91}, !- Handle
  {a5f8db81-5933-4eac-a2da-93d9eeb9e032}, !- Zone or ZoneList Name
  11.1,                                   !- Zone Cooling Design Supply Air Temperature {C}
  50,                                     !- Zone Heating Design Supply Air Temperature {C}
  0.0085,                                 !- Zone Cooling Design Supply Air Humidity Ratio {kg-H2O/kg-air}
  0.008,                                  !- Zone Heating Design Supply Air Humidity Ratio {kg-H2O/kg-air}
  ,                                       !- Zone Heating Sizing Factor
  ,                                       !- Zone Cooling Sizing Factor
  DesignDay,                              !- Cooling Design Air Flow Method
  ,                                       !- Cooling Design Air Flow Rate {m3/s}
  ,                                       !- Cooling Minimum Air Flow per Zone Floor Area {m3/s-m2}
  ,                                       !- Cooling Minimum Air Flow {m3/s}
  ,                                       !- Cooling Minimum Air Flow Fraction
  DesignDay,                              !- Heating Design Air Flow Method
  ,                                       !- Heating Design Air Flow Rate {m3/s}
  ,                                       !- Heating Maximum Air Flow per Zone Floor Area {m3/s-m2}
  ,                                       !- Heating Maximum Air Flow {m3/s}
  ,                                       !- Heating Maximum Air Flow Fraction
  ,                                       !- Design Zone Air Distribution Effectiveness in Cooling Mode