
OS:Version,
  {95fe5015-169a-4258-a8cd-1b469dee7147}, !- Handle
  1.6.0;                                  !- Version Identifier

OS:Site,
  {69d82a13-6ee0-4739-ab6d-b2373029e2e3}, !- Handle
  Calgary Int'l_AB_CAN,                   !- Name
  51.12,                                  !- Latitude {deg}
  -114.02,                                !- Longitude {deg}
  -7,                                     !- Time Zone {hr}
  1084,                                   !- Elevation {m}
  City;                                   !- Terrain

OS:SimulationControl,
  {9434ebfd-c6bb-4c3d-8ecf-429300a9c902}, !- Handle
  Yes,                                    !- Do Zone Sizing Calculation
  Yes,                                    !- Do System Sizing Calculation
  Yes,                                    !- Do Plant Sizing Calculation
  No,                                     !- Run Simulation for Sizing Periods
  Yes,                                    !- Run Simulation for Weather File Run Periods
  0.04,                                   !- Loads Convergence Tolerance Value
  0.2,                                    !- Temperature Convergence Tolerance Value {deltaC}
  FullInteriorAndExterior,                !- Solar Distribution
  25,                                     !- Maximum Number of Warmup Days
  6;                                      !- Minimum Number of Warmup Days

OS:ThermalZone,
  {bab520dd-5c91-4c1c-91e8-5d76c6db853c}, !- Handle
  Room_4_Mult19_Flr_3 Thermal Zone,       !- Name
  76,                                     !- Multiplier
  ,                                       !- Ceiling Height {m}
  ,                                       !- Volume {m3}
  ,                                       !- Floor Area {m2}
  ,                                       !- Zone Inside Convection Algorithm
  ,                                       !- Zone Outside Convection Algorithm
  ,                                       !- Zone Conditioning Equipment List Name
  {f345a595-78fc-46fe-b05f-f2ac9c3a72fc}, !- Zone Air Inlet Port List
  {363716bb-b8c9-4c34-833d-82162788ad8c}, !- Zone Air Exhaust Port List
  {05993039-cb4d-43e1-beea-2fd4ba83b534}, !- Zone Air Node Name
  ,                                       !- Zone Return Air Node Name
  ,                                       !- Primary Daylighting Control Name
  ,                                       !- Fraction of Zone Controlled by Primary Daylighting Control
  ,                                       !- Secondary Daylighting Control Name
  ,                                       !- Fraction of Zone Controlled by Secondary Daylighting Control
  ,                                       !- Illuminance Map Name
  ,                                       !- Group Rendering Name
  {be46d413-2a15-4d45-9c66-7ab3e32a5fba}, !- Thermostat Name
  Yes;                                    !- Use Ideal Air Loads

OS:Node,
  {d07fb15c-7b10-4f11-90b4-64504edb1a46}, !- Handle
  {a04c9a11-4b68-4552-b9a8-161d60c0918e}, !- Name
  {05993039-cb4d-43e1-beea-2fd4ba83b534}, !- Inlet Port
  ;                                       !- Outlet Port

OS:Connection,
  {05993039-cb4d-43e1-beea-2fd4ba83b534}, !- Handle
  {573babd9-75a0-4e50-a4fb-2ee30c129882}, !- Name
  {bab520dd-5c91-4c1c-91e8-5d76c6db853c}, !- Source Object
  11,                                     !- Outlet Port
  {d07fb15c-7b10-4f11-90b4-64504edb1a46}, !- Target Object
  2;                                      !- Inlet Port

OS:PortList,
  {f345a595-78fc-46fe-b05f-f2ac9c3a72fc}, !- Handle
  {20debb69-457b-4658-b230-0cbe63dd9e0f}, !- Name
  {bab520dd-5c91-4c1c-91e8-5d76c6db853c}; !- HVAC Component

OS:PortList,
  {363716bb-b8c9-4c34-833d-82162788ad8c}, !- Handle
  {3b6b673d-b2e6-4ab4-9794-151b3e560459}, !- Name
  {bab520dd-5c91-4c1c-91e8-5d76c6db853c}; !- HVAC Component

OS:Sizing:Zone,
  {e5f0ed23-6c89-4471-8c19-eb7b2cf40e58}, !- Handle
  {bab520dd-5c91-4c1c-91e8-5d76c6db853c}, !- Zone or ZoneList Name
  12.49,                                  !- Zone Cooling Design Supply Air Temperature {C}
  40,                                     !- Zone Heating Design Supply Air Temperature {C}
  0.0085,                                 !- Zone Cooling Design Supply Air Humidity Ratio {kg-H2O/kg-air}
  0.008,                                  !- Zone Heating Design Supply Air Humidity Ratio {kg-H2O/kg-air}
  ,                                       !- Zone Heating Sizing Factor
  ,                                       !- Zone Cooling Sizing Factor
  DesignDay,                              !- Cooling Design Air Flow Method
  ,                                       !- Cooling Design Air Flow Rate {m3/s}
  ,                                       !- Cooling Minimum Air Flow per Zone Floor Area {m3/s-m2}
  ,                                       !- Cooling Minimum Air Flow {m3/s}
  ,                                       !- Cooling Minimum Air Flow Fraction
  DesignDay,                              !- Heating Design Air Flow Method
  ,                                       !- Heating Design Air Flow Rate {m3/s}
  ,                                       !- Heating Maximum Air Flow per Zone Floor Area {m3/s-m2}
  ,                                       !- Heating Maximum Air Flow {m3/s}
  ,                                       !- Heating Maximum Air Flow Fraction
  ,                                       !- Design Zone Air Distribution Effectiveness in Cooling Mode
  ;                                       !- Design Zone Air Distribution Effectiveness in Heating Mode

OS:ZoneHVAC:EquipmentList,
  {54474ff4-71fe-4bf9-a0d9-d5bba847961a}, !- Handle
  {54a38b38-51b8-472a-8697-63ecdf1ac539}, !- Name
  {bab520dd-5c91-4c1c-91e8-5d76c6db853c}; !- Thermal Zone

OS:Space,
  {ecf26f11-79f4-4e46-a287-12e32ab89aff}, !- Handle
  Room_4_Mult19_Flr_3,                    !- Name
  {c80c9690-71cd-49a6-bc6d-cc36f728edfb}, !- Space Type Name
  ,                                       !- Default Construction Set Name
  ,                                       !- Default Schedule Set Name
  0,                                      !- Direction of Relative North {deg}
  0,                                      !- X Origin {m}
  0,                                      !- Y Origin {m}
  0,                                      !- Z Origin {m}
  {39e5ae43-2760-46aa-a6f8-b47ed2f224dd}, !- Building Story Name
  {bab520dd-5c91-4c1c-91e8-5d76c6db853c}, !- Thermal Zone Name
  Yes,                                    !- Part of Total Floor Area
  ;                                       !- Design Specification Outdoor Air Object Name

OS:ThermalZone,
  {7543c5ec-0b12-4c65-89bf-78f975fb7202}, !- Handle
  Room_6_Flr_3 Thermal Zone,              !- Name
  4,                                      !- Multiplier
  ,                                       !- Ceiling Height {m}
  ,                                       !- Volume {m3}
  ,                                       !- Floor Area {m2}
  ,                                       !- Zone Inside Convection Algorithm
  ,                                       !- Zone Outside Convection Algorithm
  ,                                       !- Zone Conditioning Equipment List Name
  {f15840b0-fb6c-46bb-8479-3d404e6d43b6}, !- Zone Air Inlet Port List
  {9feb613a-a2ba-438c-bece-c13619beddce}, !- Zone Air Exhaust Port List
  {ad4d0c77-9553-4278-9440-714bab59711d}, !- Zone Air Node Name
  ,                                       !- Zone Return Air Node Name
  ,                                       !- Primary Daylighting Control Name
  ,                                       !- Fraction of Zone Controlled by Primary Daylighting Control
  ,                                       !- Secondary Daylighting Control Name
  ,                                       !- Fraction of Zone Controlled by Secondary Daylighting Control
  ,                                       !- Illuminance Map Name
  ,                                       !- Group Rendering Name
  {be46d413-2a15-4d45-9c66-7ab3e32a5fba}, !- Thermostat Name
  Yes;                                    !- Use Ideal Air Loads

OS:Node,
  {82978930-051e-4c9e-8e60-ec4087797c14}, !- Handle
  {0fa42bc3-9f56-4abe-b729-0841be26792b}, !- Name
  {ad4d0c77-9553-4278-9440-714bab59711d}, !- Inlet Port
  ;                                       !- Outlet Port

OS:Connection,
  {ad4d0c77-9553-4278-9440-714bab59711d}, !- Handle
  {a1062e93-4984-4ac8-8774-3bb350735be0}, !- Name
  {7543c5ec-0b12-4c65-89bf-78f975fb7202}, !- Source Object
  11,                                     !- Outlet Port
  {82978930-051e-4c9e-8e60-ec4087797c14}, !- Target Object
  2;                                      !- Inlet Port

OS:PortList,
  {f15840b0-fb6c-46bb-8479-3d404e6d43b6}, !- Handle
  {3f33485d-5533-48fe-a311-962b2089aeca}, !- Name
  {7543c5ec-0b12-4c65-89bf-78f975fb7202}; !- HVAC Component

OS:PortList,
  {9feb613a-a2ba-438c-bece-c13619beddce}, !- Handle
  {bce4d577-f66a-42cd-8a2c-496e66adab8e}, !- Name
  {7543c5ec-0b12-4c65-89bf-78f975fb7202}; !- HVAC Component

OS:Sizing:Zone,
  {978768e5-e8b3-4b3a-a848-3b63fd452e87}, !- Handle
  {7543c5ec-0b12-4c65-89bf-78f975fb7202}, !- Zone or ZoneList Name
  12.83,                                  !- Zone Cooling Design Supply Air Temperature {C}
  40,                                     !- Zone Heating Design Supply Air Temperature {C}
  0.0085,                                 !- Zone Cooling Design Supply Air Humidity Ratio {kg-H2O/kg-air}
  0.008,                                  !- Zone Heating Design Supply Air Humidity Ratio {kg-H2O/kg-air}
  ,                                       !- Zone Heating Sizing Factor
  ,                                       !- Zone Cooling Sizing Factor
  DesignDay,                              !- Cooling Design Air Flow Method
  ,                                       !- Cooling Design Air Flow Rate {m3/s}
  ,                                       !- Cooling Minimum Air Flow per Zone Floor Area {m3/s-m2}
  ,                                       !- Cooling Minimum Air Flow {m3/s}
  ,                                       !- Cooling Minimum Air Flow Fraction
  DesignDay,                              !- Heating Design Air Flow Method
  ,                                       !- Heating Design Air Flow Rate {m3/s}
  ,                                       !- Heating Maximum Air Flow per Zone Floor Area {m3/s-m2}
  ,                                       !- Heating Maximum Air Flow {m3/s}
  ,                                       !- Heating Maximum Air Flow Fraction
  ,                                       !- Design Zone Air Distribution Effectiveness in Cooling Mode
  ;                                       !- Design Zone Air Distribution Effectiveness in Heating Mode

OS:ZoneHVAC:EquipmentList,
  {604f761b-e858-49a0-9d6a-521c4d472945}, !- Handle
  {8959a541-e860-4a12-92e2-f553dec45069}, !- Name
  {7543c5ec-0b12-4c65-89bf-78f975fb7202}; !- Thermal Zone

OS:Space,
  {1b0cb778-d943-4901-8ca6-f3ca9ec265fa}, !- Handle
  Room_6_Flr_3,                           !- Name
  {c80c9690-71cd-49a6-bc6d-cc36f728edfb}, !- Space Type Name
  ,                                       !- Default Construction Set Name
  ,                                       !- Default Schedule Set Name
  0,                                      !- Direction of Relative North {deg}
  0,                                      !- X Origin {m}
  0,                                      !- Y Origin {m}
  0,                                      !- Z Origin {m}
  {39e5ae43-2760-46aa-a6f8-b47ed2f224dd}, !- Building Story Name
  {7543c5ec-0b12-4c65-89bf-78f975fb7202}, !- Thermal Zone Name
  Yes,                                    !- Part of Total Floor Area
  ;                                       !- Design Specification Outdoor Air Object Name

OS:Surface,
  {b45d8ea4-3479-4940-973f-29b2b468ec4d}, !- Handle
  Retail_1_Flr_1_Floor,                   !- Name
  Floor,                                  !- Surface Type
  ,                                       !- Construction Name
  {cbb9161e-ff5b-467f-8d97-5adcb8ed31c8}, !- Space Name
  Surface,                                !- Outside Boundary Condition
  {41790865-6ca1-4418-94a9-a633e4d4ead0}, !- Outside Boundary Condition Object
  NoSun,                                  !- Sun Exposure
  NoWind,                                 !- Wind Exposure
  ,                                       !- View Factor to Ground
  ,                                       !- Number of Vertices
  11.582, 5.791, 0,                       !- X,Y,Z Vertex 1 {m}
  11.582, 0, 0,                           !- X,Y,Z Vertex 2 {m}
  0, 0, 0,                                !- X,Y,Z Vertex 3 {m}
  0, 5.791, 0;                            !- X,Y,Z Vertex 4 {m}

OS:ThermalZone,
  {0275e8b7-d5cf-4cb7-9f82-d22055a2b713}, !- Handle
  Retail_1_Flr_1 Thermal Zone,            !- Name
  1,                                      !- Multiplier
  ,                                       !- Ceiling Height {m}
  ,                                       !- Volume {m3}
  ,                                       !- Floor Area {m2}
  ,                                       !- Zone Inside Convection Algorithm
  ,                                       !- Zone Outside Convection Algorithm
  ,                                       !- Zone Conditioning Equipment List Name
  {c51e9101-fdea-4b3a-b427-e6454c23ed69}, !- Zone Air Inlet Port List
  {d5445a06-f555-46b2-b9b4-5ffcb3f7502e}, !- Zone Air Exhaust Port List
  {de017293-a009-4a7e-be7b-880a94540342}, !- Zone Air Node Name
  ,                                       !- Zone Return Air Node Name
  ,                                       !- Primary Daylighting Control Name
  ,                                       !- Fraction of Zone Controlled by Primary Daylighting Control
  ,                                       !- Secondary Daylighting Control Name
  ,                                       !- Fraction of Zone Controlled by Secondary Daylighting Control
  ,                                       !- Illuminance Map Name
  ,                                       !- Group Rendering Name
  {a971e334-08e3-4334-95db-957b53bfb3ad}, !- Thermostat Name
  Yes;                                    !- Use Ideal Air Loads

OS:Node,
  {0ef86f5d-c92d-4a0b-afcc-392056a7013e}, !- Handle
  {018ea32b-ad51-4a77-9b96-a9cb5eb9bbae}, !- Name
  {de017293-a009-4a7e-be7b-880a94540342}, !- Inlet Port
  ;                                       !- Outlet Port

OS:Connection,
  {de017293-a009-4a7e-be7b-880a94540342}, !- Handle
  {12d741df-d32c-4837-b046-f87e437a3899}, !- Name
  {0275e8b7-d5cf-4cb7-9f82-d22055a2b713}, !- Source Object
  11,                                     !- Outlet Port
  {0ef86f5d-c92d-4a0b-afcc-392056a7013e}, !- Target Object
  2;                                      !- Inlet Port

OS:PortList,
  {c51e9101-fdea-4b3a-b427-e6454c23ed69}, !- Handle
  {f94fe9a7-90d4-411f-99f7-3d23539921c2}, !- Name
  {0275e8b7-d5cf-4cb7-9f82-d22055a2b713}; !- HVAC Component

OS:PortList,
  {d5445a06-f555-46b2-b9b4-5ffcb3f7502e}, !- Handle
  {8a7dc8e5-8c73-410a-83dd-a37b49ba50ef}, !- Name
  {0275e8b7-d5cf-4cb7-9f82-d22055a2b713}; !- HVAC Component

OS:Sizing:Zone,
  {4263ebc9-3867-4e15-8a22-d8545066cb4a}, !- Handle
  {0275e8b7-d5cf-4cb7-9f82-d22055a2b713}, !- Zone or ZoneList Name
  14,                                     !- Zone Cooling Design Supply Air Temperature {C}
  40,                                     !- Zone Heating Design Supply Air Temperature {C}
  0.0085,                                 !- Zone Cooling Design Supply Air Humidity Ratio {kg-H2O/kg-air}
  0.008,                                  !- Zone Heating Design Supply Air Humidity Ratio {kg-H2O/kg-air}
  ,                                       !- Zone Heating Sizing Factor
  ,                                       !- Zone Cooling Sizing Factor
  DesignDay,                              !- Cooling Design Air Flow Method
  ,                                       !- Cooling Design Air Flow Rate {m3/s}
  ,                                       !- Cooling Minimum Air Flow per Zone Floor Area {m3/s-m2}
  ,                                       !- Cooling Minimum Air Flow {m3/s}
  ,                                       !- Cooling Minimum Air Flow Fraction
  DesignDay,                              !- Heating Design Air Flow Method
  ,                                       !- Heating Design Air Flow Rate {m3/s}
  ,                                       !- Heating Maximum Air Flow per Zone Floor Area {m3/s-m2}
  ,                                       !- Heating Maximum Air Flow {m3/s}
  ,                                       !- Heating Maximum Air Flow Fraction
  ,                                       !- Design Zone Air Distribution Effectiveness in Cooling Mode
  ;                                       !- Design Zone Air Distribution Effectiveness in Heating Mode

OS:ZoneHVAC:EquipmentList,
  {be7305b1-eda0-4063-8a26-213f401c5e53}, !- Handle
  {5ac08307-49c3-441b-8e56-0d23b9fc7757}, !- Name
  {0275e8b7-d5cf-4cb7-9f82-d22055a2b713}; !- Thermal Zone

OS:Space,
  {cbb9161e-ff5b-467f-8d97-5adcb8ed31c8}, !- Handle
  Retail_1_Flr_1,                         !- Name
  {c123dff1-d26b-4f8c-8f30-be7240772adc}, !- Space Type Name
  ,                                       !- Default Construction Set Name
  ,                                       !- Default Schedule Set Name
  0,                                      !- Direction of Relative North {deg}
  0,                                      !- X Origin {m}
  0,                                      !- Y Origin {m}
  0,                                      !- Z Origin {m}
  {39e5ae43-2760-46aa-a6f8-b47ed2f224dd}, !- Building Story Name
  {0275e8b7-d5cf-4cb7-9f82-d22055a2b713}, !- Thermal Zone Name
  Yes,                                    !- Part of Total Floor Area
  ;                                       !- Design Specification Outdoor Air Object Name

OS:ThermalZone,
  {f8d34d9d-767c-4cf1-b571-1cb466a0fdcb}, !- Handle
  Corridor_Flr_3 Thermal Zone,            !- Name
  4,                                      !- Multiplier
  ,                                       !- Ceiling Height {m}
  ,                                       !- Volume {m3}
  ,                                       !- Floor Area {m2}
  ,                                       !- Zone Inside Convection Algorithm
  ,                                       !- Zone Outside Convection Algorithm
  ,                                       !- Zone Conditioning Equipment List Name
  {eafa8a78-fc88-4289-85c3-415260f41286}, !- Zone Air Inlet Port List
  {5314a002-c3af-42bf-b577-26e80289e54a}, !- Zone Air Exhaust Port List
  {8c66a771-10ad-4c5f-ad30-689c86e38f36}, !- Zone Air Node Name
  ,                                       !- Zone Return Air Node Name
  ,                                       !- Primary Daylighting Control Name
  ,                                       !- Fraction of Zone Controlled by Primary Daylighting Control
  ,                                       !- Secondary Daylighting Control Name
  ,                                       !- Fraction of Zone Controlled by Secondary Daylighting Control
  ,                                       !- Illuminance Map Name
  ,                                       !- Group Rendering Name
  {c3309a4d-49af-4c5d-a9e7-8bb3b3027958}, !- Thermostat Name
  Yes;                                    !- Use Ideal Air Loads

OS:Node,
  {7f4d0e8d-467f-4ee8-926a-798b5463e920}, !- Handle
  {2f0b09b6-a432-4aaa-aabe-259dfb3f04e1}, !- Name
  {8c66a771-10ad-4c5f-ad30-689c86e38f36}, !- Inlet Port
  ;                                       !- Outlet Port

OS:Connection,
  {8c66a771-10ad-4c5f-ad30-689c86e38f36}, !- Handle
  {a7938190-b20a-4ea8-a79e-3cd1ca42a36f}, !- Name
  {f8d34d9d-767c-4cf1-b571-1cb466a0fdcb}, !- Source Object
  11,                                     !- Outlet Port
  {7f4d0e8d-467f-4ee8-926a-798b5463e920}, !- Target Object
  2;                                      !- Inlet Port

OS:PortList,
  {eafa8a78-fc88-4289-85c3-415260f41286}, !- Handle
  {ec5a94c9-2d3c-4f54-a5cb-99ddcb8a3641}, !- Name
  {f8d34d9d-767c-4cf1-b571-1cb466a0fdcb}; !- HVAC Component

OS:PortList,
  {5314a002-c3af-42bf-b577-26e80289e54a}, !- Handle
  {119bce2b-4084-490a-bd1a-483b7c74b913}, !- Name
  {f8d34d9d-767c-4cf1-b571-1cb466a0fdcb}; !- HVAC Component

OS:Sizing:Zone,
  {77feea1a-d7c8-43ab-b12a-c1afdf5e131b}, !- Handle
  {f8d34d9d-767c-4cf1-b571-1cb466a0fdcb}, !- Zone or ZoneList Name
  14,                                     !- Zone Cooling Design Supply Air Temperature {C}
  40,                                     !- Zone Heating Design Supply Air Temperature {C}
  0.0085,                                 !- Zone Cooling Design Supply Air Humidity Ratio {kg-H2O/kg-air}
  0.008,                                  !- Zone Heating Design Supply Air Humidity Ratio {kg-H2O/kg-air}
  ,                                       !- Zone Heating Sizing Factor
  ,                                       !- Zone Cooling Sizing Factor
  DesignDay,                              !- Cooling Design Air Flow Method
  ,                                       !- Cooling Design Air Flow Rate {m3/s}
  ,                                       !- Cooling Minimum Air Flow per Zone Floor Area {m3/s-m2}
  ,                                       !- Cooling Minimum Air Flow {m3/s}
  ,                                       !- Cooling Minimum Air Flow Fraction
  DesignDay,                              !- Heating Design Air Flow Method
  ,                                       !- Heating Design Air Flow Rate {m3/s}
  ,                                       !- Heating Maximum Air Flow per Zone Floor Area {m3/s-m2}
  ,                                       !- Heating Maximum Air Flow {m3/s}
  ,                                       !- Heating Maximum Air Flow Fraction
  ,                                       !- Design Zone Air Distribution Effectiveness in Cooling Mode
  ;                                       !- Design Zone Air Distribution Effectiveness in Heating Mode

OS:ZoneHVAC:EquipmentList,
  {dedebbda-e0db-4ca7-9663-7f53062a1282}, !- Handle
  {889397a3-89d7-4530-934f-45c5e8365a27}, !- Name
  {f8d34d9d-767c-4cf1-b571-1cb466a0fdcb}; !- Thermal Zone

OS:Space,
  {0c7656ec-377c-4aa8-aa50-b64fe5a42b22}, !- Handle
  Corridor_Flr_3,                         !- Name
  {b8b51236-79b7-4bf0-9c1e-2f0ca2d3c014}, !- Space Type Name
  ,                                       !- Default Construction Set Name
  ,                                       !- Default Schedule Set Name
  0,                                      !- Direction of Relative North {deg}
  0,                                      !- X Origin {m}
  0,                                      !- Y Origin {m}
  0,                                      !- Z Origin {m}
  {39e5ae43-2760-46aa-a6f8-b47ed2f224dd}, !- Building Story Name
  {f8d34d9d-767c-4cf1-b571-1cb466a0fdcb}, !- Thermal Zone Name
  Yes,                                    !- Part of Total Floor Area
  ;                                       !- Design Specification Outdoor Air Object Name

OS:Surface,
  {168b05b1-cc70-48a5-9bc7-c624cb3de611}, !- Handle
  Kitchen_Flr_6_Floor,                    !- Name
  Floor,                                  !- Surface Type
  ,                                       !- Construction Name
  {2b1b3184-8354-405e-9ce6-594b83fc6a86}, !- Space Name
  Outdoors,                               !- Outside Boundary Condition
  ,                                       !- Outside Boundary Condition Object
  SunExposed,                             !- Sun Exposure
  WindExposed,                            !- Wind Exposure
  ,                                       !- View Factor to Ground
  ,                                       !- Number of Vertices
  86.563, 22.86, 16.152,                  !- X,Y,Z Vertex 1 {m}
  86.563, 5.791, 16.152,                  !- X,Y,Z Vertex 2 {m}
  81.991, 5.791, 16.152,                  !- X,Y,Z Vertex 3 {m}
  81.991, 12.497, 16.152,                 !- X,Y,Z Vertex 4 {m}
  79.553, 12.497, 16.152,                 !- X,Y,Z Vertex 5 {m}
  79.553, 22.86, 16.152;                  !- X,Y,Z Vertex 6 {m}

OS:ThermalZone,
  {f0c3e110-41fa-4778-802c-636d8a8baefc}, !- Handle
  Kitchen_Flr_6 Thermal Zone,             !- Name
  1,                                      !- Multiplier
  ,                                       !- Ceiling Height {m}
  ,                                       !- Volume {m3}
  ,                                       !- Floor Area {m2}
  ,                                       !- Zone Inside Convection Algorithm
  ,                                       !- Zone Outside Convection Algorithm
  ,                                       !- Zone Conditioning Equipment List Name
  {86d9fb87-871b-404e-bad4-370ed2097a23}, !- Zone Air Inlet Port List
  {b8bf0e3f-15f9-4fd6-9feb-0ee80042bafc}, !- Zone Air Exhaust Port List
  {74e5d6d9-93c9-40ee-9cae-d0fbf1138586}, !- Zone Air Node Name
  ,                                       !- Zone Return Air Node Name
  ,                                       !- Primary Daylighting Control Name
  ,                                       !- Fraction of Zone Controlled by Primary Daylighting Control
  ,                                       !- Secondary Daylighting Control Name
  ,                                       !- Fraction of Zone Controlled by Secondary Daylighting Control
  ,                                       !- Illuminance Map Name
  ,                                       !- Group Rendering Name
  {f4383c18-e2d9-492d-91b7-b2b35795072d}, !- Thermostat Name
  Yes;                                    !- Use Ideal Air Loads

OS:Node,
  {fe7558c7-39d5-4ba1-a3d9-663e2cf40e6a}, !- Handle
  {373a1aa7-a5b4-4682-9581-95ba929c9496}, !- Name
  {74e5d6d9-93c9-40ee-9cae-d0fbf1138586}, !- Inlet Port
  ;                                       !- Outlet Port

OS:Connection,
  {74e5d6d9-93c9-40ee-9cae-d0fbf1138586}, !- Handle
  {337d8160-d6c4-40b7-a5f9-647a58139014}, !- Name
  {f0c3e110-41fa-4778-802c-636d8a8baefc}, !- Source Object
  11,                                     !- Outlet Port
  {fe7558c7-39d5-4ba1-a3d9-663e2cf40e6a}, !- Target Object
  2;                                      !- Inlet Port

OS:PortList,
  {86d9fb87-871b-404e-bad4-370ed2097a23}, !- Handle
  {117a3e38-fd25-4f76-a8ad-990431e83e81}, !- Name
  {f0c3e110-41fa-4778-802c-636d8a8baefc}; !- HVAC Component

OS:PortList,
  {b8bf0e3f-15f9-4fd6-9feb-0ee80042bafc}, !- Handle
  {cfe32515-c4a3-41c2-ac0d-39e9bfa4057c}, !- Name
  {f0c3e110-41fa-4778-802c-636d8a8baefc}; !- HVAC Component

OS:Sizing:Zone,
  {308e7ef5-6084-41e7-acc8-67fa47d1f34e}, !- Handle
  {f0c3e110-41fa-4778-802c-636d8a8baefc}, !- Zone or ZoneList Name
  14,                                     !- Zone Cooling Design Supply Air Temperature {C}
  40,                                     !- Zone Heating Design Supply Air Temperature {C}
  0.0085,                                 !- Zone Cooling Design Supply Air Humidity Ratio {kg-H2O/kg-air}
  0.008,                                  !- Zone Heating Design Supply Air Humidity Ratio {kg-H2O/kg-air}
  ,                                       !- Zone Heating Sizing Factor
  ,                                       !- Zone Cooling Sizing Factor
  DesignDay,                              !- Cooling Design Air Flow Method
  ,                                       !- Cooling Design Air Flow Rate {m3/s}
  ,                                       !- Cooling Minimum Air Flow per Zone Floor Area {m3/s-m2}
  ,                                       !- Cooling Minimum Air Flow {m3/s}
  ,                                       !- Cooling Minimum Air Flow Fraction
  DesignDay,                              !- Heating Design Air Flow Method
  ,                                       !- Heating Design Air Flow Rate {m3/s}
  ,                                       !- Heating Maximum Air Flow per Zone Floor Area {m3/s-m2}
  ,                                       !- Heating Maximum Air Flow {m3/s}
  ,                                       !- Heating Maximum Air Flow Fraction
  ,                                       !- Design Zone Air Distribution Effectiveness in Cooling Mode
  ;                                       !- Design Zone Air Distribution Effectiveness in Heating Mode

OS:ZoneHVAC:EquipmentList,
  {1f9a1d51-22ad-4ed7-a6d7-386270c4ad09}, !- Handle
  {764c6a91-66b0-4494-b687-2d72c2fbe671}, !- Name
  {f0c3e110-41fa-4778-802c-636d8a8baefc}; !- Thermal Zone

OS:Space,
  {2b1b3184-8354-405e-9ce6-594b83fc6a86}, !- Handle
  Kitchen_Flr_6,                          !- Name
  {141fad44-1e3b-48fd-b9a9-9957b8949778}, !- Space Type Name
  ,                                       !- Default Construction Set Name
  ,                                       !- Default Schedule Set Name
  0,                                      !- Direction of Relative North {deg}
  0,                                      !- X Origin {m}
  0,                                      !- Y Origin {m}
  0,                                      !- Z Origin {m}
  {39e5ae43-2760-46aa-a6f8-b47ed2f224dd}, !- Building Story Name
  {f0c3e110-41fa-4778-802c-636d8a8baefc}, !- Thermal Zone Name
  Yes,                                    !- Part of Total Floor Area
  ;                                       !- Design Specification Outdoor Air Object Name

OS:Surface,
  {80aa65d4-9a14-45a3-b6d8-cd76556978a9}, !- Handle
  Corridor_Flr_3_Wall_1_South,            !- Name
  Wall,                                   !- Surface Type
  ,                                       !- Construction Name
  {0c7656ec-377c-4aa8-aa50-b64fe5a42b22}, !- Space Name
  Outdoors,                               !- Outside Boundary Condition
  ,                                       !- Outside Boundary Condition Object
  SunExposed,                             !- Sun Exposure
  WindExposed,                            !- Wind Exposure
  ,                                       !- View Factor to Ground