
OS:Version,
  {2f0aa196-babd-4fd6-8c68-f72baace8a44}, !- Handle
  1.6.0;                                  !- Version Identifier

OS:Site,
  {5af3a399-d453-4cd8-939c-c5d75a7b7829}, !- Handle
  Calgary Int'l_AB_CAN,                   !- Name
  51.12,                                  !- Latitude {deg}
  -114.02,                                !- Longitude {deg}
  -7,                                     !- Time Zone {hr}
  1084,                                   !- Elevation {m}
  City;                                   !- Terrain

OS:SimulationControl,
  {fa048dc5-036f-46ca-a9ae-3e8e91eb25fa}, !- Handle
  Yes,                                    !- Do Zone Sizing Calculation
  Yes,                                    !- Do System Sizing Calculation
  Yes,                                    !- Do Plant Sizing Calculation
  No,                                     !- Run Simulation for Sizing Periods
  Yes,                                    !- Run Simulation for Weather File Run Periods
  0.04,                                   !- Loads Convergence Tolerance Value
  0.2,                                    !- Temperature Convergence Tolerance Value {deltaC}
  FullInteriorAndExterior,                !- Solar Distribution
  25,                                     !- Maximum Number of Warmup Days
  6;                                      !- Minimum Number of Warmup Days

OS:Surface,
  {906a7ddb-cddc-4ea8-b057-81000aa21ab6}, !- Handle
  MidFloor_Plenum_Floor_5,                !- Name
  Floor,                                  !- Surface Type
  ,                                       !- Construction Name
  {35714541-2074-4447-8eb8-e6d3796290f4}, !- Space Name
  Surface,                                !- Outside Boundary Condition
  {c02bde77-6f78-490e-88df-3eef1bf736b9}, !- Outside Boundary Condition Object
  NoSun,                                  !- Sun Exposure
  NoWind,                                 !- Wind Exposure
  ,                                       !- View Factor to Ground
  ,                                       !- Number of Vertices
  68.534, 44.165, 22.56,                  !- X,Y,Z Vertex 1 {m}
  68.534, 4.5732, 22.56,                  !- X,Y,Z Vertex 2 {m}
  4.5732, 4.5732, 22.56,                  !- X,Y,Z Vertex 3 {m}
  4.5732, 44.165, 22.56;                  !- X,Y,Z Vertex 4 {m}

OS:ThermalZone,
  {d302e00c-9031-4522-a100-4b409bb852fa}, !- Handle
  MidFloor_Plenum Thermal Zone,           !- Name
  10,                                     !- Multiplier
  ,                                       !- Ceiling Height {m}
  ,                                       !- Volume {m3}
  ,                                       !- Floor Area {m2}
  ,                                       !- Zone Inside Convection Algorithm
  ,                                       !- Zone Outside Convection Algorithm
  ,                                       !- Zone Conditioning Equipment List Name
  {76b5d54a-c64d-4807-9427-97dc18f5d1ca}, !- Zone Air Inlet Port List
  {e03e64ae-5f08-4c0d-8042-34542f66d6d9}, !- Zone Air Exhaust Port List
  {67ef9cdc-b6de-4b1f-a77f-97eaf36dbe9e}, !- Zone Air Node Name
  ,                                       !- Zone Return Air Node Name
  ,                                       !- Primary Daylighting Control Name
  ,                                       !- Fraction of Zone Controlled by Primary Daylighting Control
  ,                                       !- Secondary Daylighting Control Name
  ,                                       !- Fraction of Zone Controlled by Secondary Daylighting Control
  ,                                       !- Illuminance Map Name
  ,                                       !- Group Rendering Name
  {bef07a9d-9f7e-4d7f-9ed0-3cce997f9f83}, !- Thermostat Name
  Yes;                                    !- Use Ideal Air Loads

OS:Node,
  {72bb2e8c-ce32-4182-8a1f-a895b8cb4cd3}, !- Handle
  {9c1070a2-2537-4425-b228-6d0defe08d81}, !- Name
  {67ef9cdc-b6de-4b1f-a77f-97eaf36dbe9e}, !- Inlet Port
  ;                                       !- Outlet Port

OS:Connection,
  {67ef9cdc-b6de-4b1f-a77f-97eaf36dbe9e}, !- Handle
  {39c8410b-367e-43a0-905f-6059728b33d5}, !- Name
  {d302e00c-9031-4522-a100-4b409bb852fa}, !- Source Object
  11,                                     !- Outlet Port
  {72bb2e8c-ce32-4182-8a1f-a895b8cb4cd3}, !- Target Object
  2;                                      !- Inlet Port

OS:PortList,
  {76b5d54a-c64d-4807-9427-97dc18f5d1ca}, !- Handle
  {eda85235-dad4-4501-9ef4-12f9aba7bbb6}, !- Name
  {d302e00c-9031-4522-a100-4b409bb852fa}; !- HVAC Component

OS:PortList,
  {e03e64ae-5f08-4c0d-8042-34542f66d6d9}, !- Handle
  {c1cad815-53db-40c5-ac03-9446a8eb2f27}, !- Name
  {d302e00c-9031-4522-a100-4b409bb852fa}; !- HVAC Component

OS:Sizing:Zone,
  {b28b04b2-1918-47ff-b85b-50e325ec74fa}, !- Handle
  {d302e00c-9031-4522-a100-4b409bb852fa}, !- Zone or ZoneList Name
  14,                                     !- Zone Cooling Design Supply Air Temperature {C}
  40,                                     !- Zone Heating Design Supply Air Temperature {C}
  0.0085,                                 !- Zone Cooling Design Supply Air Humidity Ratio {kg-H2O/kg-air}
  0.008,                                  !- Zone Heating Design Supply Air Humidity Ratio {kg-H2O/kg-air}
  ,                                       !- Zone Heating Sizing Factor
  ,                                       !- Zone Cooling Sizing Factor
  DesignDay,                              !- Cooling Design Air Flow Method
  ,                                       !- Cooling Design Air Flow Rate {m3/s}
  ,                                       !- Cooling Minimum Air Flow per Zone Floor Area {m3/s-m2}
  ,                                       !- Cooling Minimum Air Flow {m3/s}
  ,                                       !- Cooling Minimum Air Flow Fraction
  DesignDay,                              !- Heating Design Air Flow Method
  ,                                       !- Heating Design Air Flow Rate {m3/s}
  ,                                       !- Heating Maximum Air Flow per Zone Floor Area {m3/s-m2}
  ,                                       !- Heating Maximum Air Flow {m3/s}
  ,                                       !- Heating Maximum Air Flow Fraction
  ,                                       !- Design Zone Air Distribution Effectiveness in Cooling Mode
  ;                                       !- Design Zone Air Distribution Effectiveness in Heating Mode

OS:ZoneHVAC:EquipmentList,
  {ff73a62e-57a8-4b2b-b5e9-34a128634b42}, !- Handle
  {e855d943-5f07-4f12-a1d7-bb787f81a769}, !- Name
  {d302e00c-9031-4522-a100-4b409bb852fa}; !- Thermal Zone

OS:Space,
  {35714541-2074-4447-8eb8-e6d3796290f4}, !- Handle
  MidFloor_Plenum,                        !- Name
  {77f5da50-5fc4-4699-87ba-d22c009ac76a}, !- Space Type Name
  ,                                       !- Default Construction Set Name
  ,                                       !- Default Schedule Set Name
  0,                                      !- Direction of Relative North {deg}
  0,                                      !- X Origin {m}
  0,                                      !- Y Origin {m}
  0,                                      !- Z Origin {m}
  {24be2e2e-df52-406c-9ee8-162a7a536697}, !- Building Story Name
  {d302e00c-9031-4522-a100-4b409bb852fa}, !- Thermal Zone Name
  No;                                     !- Part of Total Floor Area

OS:Surface,
  {56c35693-a86b-4ffb-b534-4ca040ee569e}, !- Handle
  Perimeter_mid_ZN_2_Floor,               !- Name
  Floor,                                  !- Surface Type
  ,                                       !- Construction Name
  {4bb70110-3043-4204-8d2d-f72e69ca371e}, !- Space Name
  Outdoors,                               !- Outside Boundary Condition
  ,                                       !- Outside Boundary Condition Object
  SunExposed,                             !- Sun Exposure
  WindExposed,                            !- Wind Exposure
  ,                                       !- View Factor to Ground
  ,                                       !- Number of Vertices
  73.1072, 48.7381, 19.816,               !- X,Y,Z Vertex 1 {m}
  73.1072, 0, 19.816,                     !- X,Y,Z Vertex 2 {m}
  68.534, 4.5732, 19.816,                 !- X,Y,Z Vertex 3 {m}
  68.534, 44.165, 19.816;                 !- X,Y,Z Vertex 4 {m}

OS:ThermalZone,
  {6fc4cfb9-f424-4573-a79a-c1973bd3588f}, !- Handle
  Perimeter_mid_ZN_2 Thermal Zone,        !- Name
  10,                                     !- Multiplier
  ,                                       !- Ceiling Height {m}
  ,                                       !- Volume {m3}
  ,                                       !- Floor Area {m2}
  ,                                       !- Zone Inside Convection Algorithm
  ,                                       !- Zone Outside Convection Algorithm
  ,                                       !- Zone Conditioning Equipment List Name
  {b7610920-6ed1-41dc-96ed-8dc4f6032848}, !- Zone Air Inlet Port List
  {ffa9936d-352e-442f-92d0-ca26bfe86fa6}, !- Zone Air Exhaust Port List
  {0b5a08e0-de6a-4946-b909-56c2b0aa2546}, !- Zone Air Node Name
  ,                                       !- Zone Return Air Node Name
  ,                                       !- Primary Daylighting Control Name
  ,                                       !- Fraction of Zone Controlled by Primary Daylighting Control
  ,                                       !- Secondary Daylighting Control Name
  ,                                       !- Fraction of Zone Controlled by Secondary Daylighting Control
  ,                                       !- Illuminance Map Name
  ,                                       !- Group Rendering Name
  {bef07a9d-9f7e-4d7f-9ed0-3cce997f9f83}, !- Thermostat Name
  Yes;                                    !- Use Ideal Air Loads

OS:Node,
  {64adfff3-ddfa-480d-8aeb-27c40f8e375f}, !- Handle
  {d20f13ec-e0c3-484b-bf8e-44b5622167ec}, !- Name
  {0b5a08e0-de6a-4946-b909-56c2b0aa2546}, !- Inlet Port
  ;                                       !- Outlet Port

OS:Connection,
  {0b5a08e0-de6a-4946-b909-56c2b0aa2546}, !- Handle
  {1eaec343-14e4-4111-859a-b4f4cb68fddd}, !- Name
  {6fc4cfb9-f424-4573-a79a-c1973bd3588f}, !- Source Object
  11,                                     !- Outlet Port
  {64adfff3-ddfa-480d-8aeb-27c40f8e375f}, !- Target Object
  2;                                      !- Inlet Port

OS:PortList,
  {b7610920-6ed1-41dc-96ed-8dc4f6032848}, !- Handle
  {33e3344c-6b7b-4aa8-be0c-b6c38169c8ec}, !- Name
  {6fc4cfb9-f424-4573-a79a-c1973bd3588f}; !- HVAC Component

OS:PortList,
  {ffa9936d-352e-442f-92d0-ca26bfe86fa6}, !- Handle
  {3bfad7fb-ef8c-4c92-9921-aacf4a2a56c5}, !- Name
  {6fc4cfb9-f424-4573-a79a-c1973bd3588f}; !- HVAC Component

OS:Sizing:Zone,
  {249ab119-3d8d-4018-bec7-9c2317c78dcb}, !- Handle
  {6fc4cfb9-f424-4573-a79a-c1973bd3588f}, !- Zone or ZoneList Name
  12.8,                                   !- Zone Cooling Design Supply Air Temperature {C}
  50,                                     !- Zone Heating Design Supply Air Temperature {C}
  0.0085,                                 !- Zone Cooling Design Supply Air Humidity Ratio {kg-H2O/kg-air}
  0.008,                                  !- Zone Heating Design Supply Air Humidity Ratio {kg-H2O/kg-air}
  ,                                       !- Zone Heating Sizing Factor
  ,                                       !- Zone Cooling Sizing Factor
  DesignDay,                              !- Cooling Design Air Flow Method
  ,                                       !- Cooling Design Air Flow Rate {m3/s}
  ,                                       !- Cooling Minimum Air Flow per Zone Floor Area {m3/s-m2}
  ,                                       !- Cooling Minimum Air Flow {m3/s}
  ,                                       !- Cooling Minimum Air Flow Fraction
  DesignDay,                              !- Heating Design Air Flow Method
  ,                                       !- Heating Design Air Flow Rate {m3/s}
  ,                                       !- Heating Maximum Air Flow per Zone Floor Area {m3/s-m2}
  ,                                       !- Heating Maximum Air Flow {m3/s}
  ,                                       !- Heating Maximum Air Flow Fraction
  ,                                       !- Design Zone Air Distribution Effectiveness in Cooling Mode
  ;                                       !- Design Zone Air Distribution Effectiveness in Heating Mode

OS:ZoneHVAC:EquipmentList,
  {0d0ce1ac-cb7e-4c7a-96a7-9c0c9b15fcc5}, !- Handle
  {362764ad-20f7-46a7-a31f-9805b3cd44f8}, !- Name
  {6fc4cfb9-f424-4573-a79a-c1973bd3588f}; !- Thermal Zone

OS:Space,
  {4bb70110-3043-4204-8d2d-f72e69ca371e}, !- Handle
  Perimeter_mid_ZN_2,                     !- Name
  {77f5da50-5fc4-4699-87ba-d22c009ac76a}, !- Space Type Name
  ,                                       !- Default Construction Set Name
  ,                                       !- Default Schedule Set Name
  0,                                      !- Direction of Relative North {deg}
  0,                                      !- X Origin {m}
  0,                                      !- Y Origin {m}
  0,                                      !- Z Origin {m}
  {24be2e2e-df52-406c-9ee8-162a7a536697}, !- Building Story Name
  {6fc4cfb9-f424-4573-a79a-c1973bd3588f}, !- Thermal Zone Name
  Yes,                                    !- Part of Total Floor Area
  ;                                       !- Design Specification Outdoor Air Object Name

OS:ThermalZone,
  {a26c9047-3997-4c0e-8eba-2bb38183824a}, !- Handle
  Core_mid Thermal Zone,                  !- Name
  10,                                     !- Multiplier
  ,                                       !- Ceiling Height {m}
  ,                                       !- Volume {m3}
  ,                                       !- Floor Area {m2}
  ,                                       !- Zone Inside Convection Algorithm
  ,                                       !- Zone Outside Convection Algorithm
  ,                                       !- Zone Conditioning Equipment List Name
  {97d6b82a-b0da-4cfc-8f54-ad4130bbc6bf}, !- Zone Air Inlet Port List
  {46ee9360-6dc3-4ca4-b9b3-7f00a702b5d1}, !- Zone Air Exhaust Port List
  {6ac0335e-c8b9-4cf2-8027-9d724e5640c7}, !- Zone Air Node Name
  ,                                       !- Zone Return Air Node Name
  ,                                       !- Primary Daylighting Control Name
  ,                                       !- Fraction of Zone Controlled by Primary Daylighting Control
  ,                                       !- Secondary Daylighting Control Name
  ,                                       !- Fraction of Zone Controlled by Secondary Daylighting Control
  ,                                       !- Illuminance Map Name
  ,                                       !- Group Rendering Name
  {bef07a9d-9f7e-4d7f-9ed0-3cce997f9f83}, !- Thermostat Name
  Yes;                                    !- Use Ideal Air Loads

OS:Node,
  {92f4f124-713b-4b37-9c9f-f5235218ad53}, !- Handle
  {49dde4f5-1476-4060-aa1a-d36ee1b3c2a2}, !- Name
  {6ac0335e-c8b9-4cf2-8027-9d724e5640c7}, !- Inlet Port
  ;                                       !- Outlet Port

OS:Connection,
  {6ac0335e-c8b9-4cf2-8027-9d724e5640c7}, !- Handle
  {0879763f-ea3d-4315-90fc-70e68fa4531b}, !- Name
  {a26c9047-3997-4c0e-8eba-2bb38183824a}, !- Source Object
  11,                                     !- Outlet Port
  {92f4f124-713b-4b37-9c9f-f5235218ad53}, !- Target Object
  2;                                      !- Inlet Port

OS:PortList,
  {97d6b82a-b0da-4cfc-8f54-ad4130bbc6bf}, !- Handle
  {f9c02d57-b6c3-4b88-b95c-c3a651f1926c}, !- Name
  {a26c9047-3997-4c0e-8eba-2bb38183824a}; !- HVAC Component

OS:PortList,
  {46ee9360-6dc3-4ca4-b9b3-7f00a702b5d1}, !- Handle
  {d49fbf8b-c256-4690-9777-9e539ec66177}, !- Name
  {a26c9047-3997-4c0e-8eba-2bb38183824a}; !- HVAC Component

OS:Sizing:Zone,
  {cbc1e29f-aebb-436e-b646-2d52d157739f}, !- Handle
  {a26c9047-3997-4c0e-8eba-2bb38183824a}, !- Zone or ZoneList Name
  12.8,                                   !- Zone Cooling Design Supply Air Temperature {C}
  50,                                     !- Zone Heating Design Supply Air Temperature {C}
  0.0085,                                 !- Zone Cooling Design Supply Air Humidity Ratio {kg-H2O/kg-air}
  0.008,                                  !- Zone Heating Design Supply Air Humidity Ratio {kg-H2O/kg-air}
  ,                                       !- Zone Heating Sizing Factor
  ,                                       !- Zone Cooling Sizing Factor
  DesignDay,                              !- Cooling Design Air Flow Method
  ,                                       !- Cooling Design Air Flow Rate {m3/s}
  ,                                       !- Cooling Minimum Air Flow per Zone Floor Area {m3/s-m2}
  ,                                       !- Cooling Minimum Air Flow {m3/s}
  ,                                       !- Cooling Minimum Air Flow Fraction
  DesignDay,                              !- Heating Design Air Flow Method
  ,                                       !- Heating Design Air Flow Rate {m3/s}
  ,                                       !- Heating Maximum Air Flow per Zone Floor Area {m3/s-m2}
  ,                                       !- Heating Maximum Air Flow {m3/s}
  ,                                       !- Heating Maximum Air Flow Fraction
  ,                                       !- Design Zone Air Distribution Effectiveness in Cooling Mode
  ;                                       !- Design Zone Air Distribution Effectiveness in Heating Mode

OS:ZoneHVAC:EquipmentList,
  {c908443f-4e58-477d-9c73-8babb6587063}, !- Handle
  {6de4a45a-fed1-4dda-a757-6cc0540753ad}, !- Name
  {a26c9047-3997-4c0e-8eba-2bb38183824a}; !- Thermal Zone

OS:Space,
  {b7878611-c193-4981-b8ff-469d7ded39e3}, !- Handle
  Core_mid,                               !- Name
  {77f5da50-5fc4-4699-87ba-d22c009ac76a}, !- Space Type Name
  ,                                       !- Default Construction Set Name
  ,                                       !- Default Schedule Set Name
  0,                                      !- Direction of Relative North {deg}
  0,                                      !- X Origin {m}
  0,                                      !- Y Origin {m}
  0,                                      !- Z Origin {m}
  {24be2e2e-df52-406c-9ee8-162a7a536697}, !- Building Story Name
  {a26c9047-3997-4c0e-8eba-2bb38183824a}, !- Thermal Zone Name
  Yes,                                    !- Part of Total Floor Area
  ;                                       !- Design Specification Outdoor Air Object Name

OS:Surface,
  {a99b7247-a042-4d99-8acb-bbda148c9ba0}, !- Handle
  Perimeter_top_ZN_4_Wall_East,           !- Name
  Wall,                                   !- Surface Type
  ,                                       !- Construction Name
  {9325516d-64a5-469b-9dde-43f697735737}, !- Space Name
  Surface,                                !- Outside Boundary Condition
  {3d27974f-ef74-499b-8141-fac8fffef3b1}, !- Outside Boundary Condition Object
  NoSun,                                  !- Sun Exposure
  NoWind,                                 !- Wind Exposure
  ,                                       !- View Factor to Ground
  ,                                       !- Number of Vertices
  4.5732, 4.5732, 46.3392,                !- X,Y,Z Vertex 1 {m}
  4.5732, 4.5732, 43.5952,                !- X,Y,Z Vertex 2 {m}
  4.5732, 44.165, 43.5952,                !- X,Y,Z Vertex 3 {m}
  4.5732, 44.165, 46.3392;                !- X,Y,Z Vertex 4 {m}

OS:ThermalZone,
  {467d3584-cf11-4930-93c4-4c8656ee4cd7}, !- Handle
  Perimeter_top_ZN_4 Thermal Zone,        !- Name
  1,                                      !- Multiplier
  ,                                       !- Ceiling Height {m}
  ,                                       !- Volume {m3}
  ,                                       !- Floor Area {m2}
  ,                                       !- Zone Inside Convection Algorithm
  ,                                       !- Zone Outside Convection Algorithm
  ,                                       !- Zone Conditioning Equipment List Name
  {cbe7cb0e-ee41-4202-848f-40369f527d6e}, !- Zone Air Inlet Port List
  {eb0d97f7-9ee4-4c0e-b9dc-a321e50b5966}, !- Zone Air Exhaust Port List
  {87d1f9eb-1b3e-428f-9d7d-84d98a0ce20b}, !- Zone Air Node Name
  ,                                       !- Zone Return Air Node Name
  ,                                       !- Primary Daylighting Control Name
  ,                                       !- Fraction of Zone Controlled by Primary Daylighting Control
  ,                                       !- Secondary Daylighting Control Name
  ,                                       !- Fraction of Zone Controlled by Secondary Daylighting Control
  ,                                       !- Illuminance Map Name
  ,                                       !- Group Rendering Name
  {bef07a9d-9f7e-4d7f-9ed0-3cce997f9f83}, !- Thermostat Name
  Yes;                                    !- Use Ideal Air Loads

OS:Node,
  {27c49612-968d-45d5-92da-d5d7e58c111a}, !- Handle
  {a2f1fb4d-8dae-43b0-bae8-f454f9cc19d2}, !- Name
  {87d1f9eb-1b3e-428f-9d7d-84d98a0ce20b}, !- Inlet Port
  ;                                       !- Outlet Port

OS:Connection,
  {87d1f9eb-1b3e-428f-9d7d-84d98a0ce20b}, !- Handle
  {d3a5abca-c305-45f7-93c6-9caecb77f063}, !- Name
  {467d3584-cf11-4930-93c4-4c8656ee4cd7}, !- Source Object
  11,                                     !- Outlet Port
  {27c49612-968d-45d5-92da-d5d7e58c111a}, !- Target Object
  2;                                      !- Inlet Port

OS:PortList,
  {cbe7cb0e-ee41-4202-848f-40369f527d6e}, !- Handle
  {f1e9486b-92d0-410e-8c6c-08206362e182}, !- Name
  {467d3584-cf11-4930-93c4-4c8656ee4cd7}; !- HVAC Component

OS:PortList,
  {eb0d97f7-9ee4-4c0e-b9dc-a321e50b5966}, !- Handle
  {a3b870c4-9cbf-4219-86eb-22132192c23c}, !- Name
  {467d3584-cf11-4930-93c4-4c8656ee4cd7}; !- HVAC Component

OS:Sizing:Zone,
  {81630a69-3ca1-48e5-a44a-8e5be00fa6ea}, !- Handle
  {467d3584-cf11-4930-93c4-4c8656ee4cd7}, !- Zone or ZoneList Name
  12.8,                                   !- Zone Cooling Design Supply Air Temperature {C}
  50,                                     !- Zone Heating Design Supply Air Temperature {C}
  0.0085,                                 !- Zone Cooling Design Supply Air Humidity Ratio {kg-H2O/kg-air}
  0.008,                                  !- Zone Heating Design Supply Air Humidity Ratio {kg-H2O/kg-air}
  ,                                       !- Zone Heating Sizing Factor
  ,                                       !- Zone Cooling Sizing Factor
  DesignDay,                              !- Cooling Design Air Flow Method
  ,                                       !- Cooling Design Air Flow Rate {m3/s}
  ,                                       !- Cooling Minimum Air Flow per Zone Floor Area {m3/s-m2}
  ,                                       !- Cooling Minimum Air Flow {m3/s}
  ,                                       !- Cooling Minimum Air Flow Fraction
  DesignDay,                              !- Heating Design Air Flow Method
  ,                                       !- Heating Design Air Flow Rate {m3/s}
  ,                                       !- Heating Maximum Air Flow per Zone Floor Area {m3/s-m2}
  ,                                       !- Heating Maximum Air Flow {m3/s}
  ,                                       !- Heating Maximum Air Flow Fraction
  ,                                       !- Design Zone Air Distribution Effectiveness in Cooling Mode
  ;                                       !- Design Zone Air Distribution Effectiveness in Heating Mode

OS:ZoneHVAC:EquipmentList,
  {3d9379ce-86c8-4b82-8a82-4eb9f87e30c8}, !- Handle
  {8ee2dfd8-9f72-4c7f-a4b5-e36638cca247}, !- Name
  {467d3584-cf11-4930-93c4-4c8656ee4cd7}; !- Thermal Zone

OS:Space,
  {9325516d-64a5-469b-9dde-43f697735737}, !- Handle
  Perimeter_top_ZN_4,                     !- Name
  {77f5da50-5fc4-4699-87ba-d22c009ac76a}, !- Space Type Name
  ,                                       !- Default Construction Set Name
  ,                                       !- Default Schedule Set Name
  0,                                      !- Direction of Relative North {deg}
  0,                                      !- X Origin {m}
  0,                                      !- Y Origin {m}
  0,                                      !- Z Origin {m}
  {24be2e2e-df52-406c-9ee8-162a7a536697}, !- Building Story Name
  {467d3584-cf11-4930-93c4-4c8656ee4cd7}, !- Thermal Zone Name
  Yes,                                    !- Part of Total Floor Area
  ;                                       !- Design Specification Outdoor Air Object Name

OS:Surface,
  {784eee96-fb21-4387-9b52-99e26ddc26c7}, !- Handle
  Basement_Wall_West,                     !- Name
  Wall,                                   !- Surface Type
  ,                                       !- Construction Name
  {8ade962e-59cd-4ac8-a656-bc065de01b3d}, !- Space Name
  Ground,                                 !- Outside Boundary Condition
  ,                                       !- Outside Boundary Condition Object
  NoSun,                                  !- Sun Exposure
  NoWind,                                 !- Wind Exposure
  ,                                       !- View Factor to Ground
  ,                                       !- Number of Vertices
  0, 48.7381, 0,                          !- X,Y,Z Vertex 1 {m}
  0, 48.7381, -2.439,                     !- X,Y,Z Vertex 2 {m}
  0, 0, -2.439,                           !- X,Y,Z Vertex 3 {m}
  0, 0, 0;                                !- X,Y,Z Vertex 4 {m}

OS:ThermalZone,
  {1b81c29a-56f9-4916-af1a-f7db2258e7e2}, !- Handle
  Basement Thermal Zone,                  !- Name
  1,                                      !- Multiplier
  ,                                       !- Ceiling Height {m}
  ,                                       !- Volume {m3}
  ,                                       !- Floor Area {m2}
  ,                                       !- Zone Inside Convection Algorithm
  ,                                       !- Zone Outside Convection Algorithm
  ,                                       !- Zone Conditioning Equipment List Name
  {1c708e7f-e9a0-43bc-916f-61bfe1f539b3}, !- Zone Air Inlet Port List
  {aa26abbf-e661-43e8-b253-bbe97f267eef}, !- Zone Air Exhaust Port List
  {b9311222-e141-44df-b9c7-61cf41e2ea23}, !- Zone Air Node Name
  ,                                       !- Zone Return Air Node Name
  ,                                       !- Primary Daylighting Control Name
  ,                                       !- Fraction of Zone Controlled by Primary Daylighting Control
  ,                                       !- Secondary Daylighting Control Name
  ,                                       !- Fraction of Zone Controlled by Secondary Daylighting Control
  ,                                       !- Illuminance Map Name
  ,                                       !- Group Rendering Name
  {bef07a9d-9f7e-4d7f-9ed0-3cce997f9f83}, !- Thermostat Name
  Yes;                                    !- Use Ideal Air Loads

OS:Node,
  {9a395ff8-2e75-441e-a061-c049f907b5bf}, !- Handle
  {089a5b36-001d-45ef-8d90-d22a3a4683c7}, !- Name
  {b9311222-e141-44df-b9c7-61cf41e2ea23}, !- Inlet Port
  ;                                       !- Outlet Port

OS:Connection,
  {b9311222-e141-44df-b9c7-61cf41e2ea23}, !- Handle
  {ee51b105-6bab-4637-b699-7d2e44c7153c}, !- Name
  {1b81c29a-56f9-4916-af1a-f7db2258e7e2}, !- Source Object
  11,                                     !- Outlet Port
  {9a395ff8-2e75-441e-a061-c049f907b5bf}, !- Target Object
  2;                                      !- Inlet Port

OS:PortList,
  {1c708e7f-e9a0-43bc-916f-61bfe1f539b3}, !- Handle
  {76392ba2-84da-4350-b180-7e3f3f94e637}, !- Name
  {1b81c29a-56f9-4916-af1a-f7db2258e7e2}; !- HVAC Component

OS:PortList,
  {aa26abbf-e661-43e8-b253-bbe97f267eef}, !- Handle
  {7e14cb64-31bb-42c0-b4be-62d711cabced}, !- Name
  {1b81c29a-56f9-4916-af1a-f7db2258e7e2}; !- HVAC Component

OS:Sizing:Zone,
  {96c7439f-fe22-4e16-808e-b24e2176fd31}, !- Handle
  {1b81c29a-56f9-4916-af1a-f7db2258e7e2}, !- Zone or ZoneList Name
  12.8,                                   !- Zone Cooling Design Supply Air Temperature {C}
  50,                                     !- Zone Heating Design Supply Air Temperature {C}
  0.0085,                                 !- Zone Cooling Design Supply Air Humidity Ratio {kg-H2O/kg-air}
  0.008,                                  !- Zone Heating Design Supply Air Humidity Ratio {kg-H2O/kg-air}
  ,                                       !- Zone Heating Sizing Factor
  ,                                       !- Zone Cooling Sizing Factor
  DesignDay,                              !- Cooling Design Air Flow Method
  ,                                       !- Cooling Design Air Flow Rate {m3/s}
  ,                                       !- Cooling Minimum Air Flow per Zone Floor Area {m3/s-m2}
  ,                                       !- Cooling Minimum Air Flow {m3/s}
  ,                                       !- Cooling Minimum Air Flow Fraction
  DesignDay,                              !- Heating Design Air Flow Method
  ,                                       !- Heating Design Air Flow Rate {m3/s}
  ,                                       !- Heating Maximum Air Flow per Zone Floor Area {m3/s-m2}
  ,                                       !- Heating Maximum Air Flow {m3/s}
  ,                                       !- Heating Maximum Air Flow Fraction
  ,                                       !- Design Zone Air Distribution Effectiveness in Cooling Mode
  ;                                       !- Design Zone Air Distribution Effectiveness in Heating Mode

OS:ZoneHVAC:EquipmentList,