
OS:Version,
  {d305382f-7d55-4f72-840d-165b02919eb4}, !- Handle
  1.6.0;                                  !- Version Identifier

OS:Site,
  {7e2ee63a-927d-4b61-9a07-c94f9c6927a5}, !- Handle
  Calgary Int'l_AB_CAN,                   !- Name
  51.12,                                  !- Latitude {deg}
  -114.02,                                !- Longitude {deg}
  -7,                                     !- Time Zone {hr}
  1084,                                   !- Elevation {m}
  City;                                   !- Terrain

OS:SimulationControl,
  {29ac6618-3f7b-4e18-a66d-45acb52e3fee}, !- Handle
  Yes,                                    !- Do Zone Sizing Calculation
  Yes,                                    !- Do System Sizing Calculation
  Yes,                                    !- Do Plant Sizing Calculation
  No,                                     !- Run Simulation for Sizing Periods
  Yes,                                    !- Run Simulation for Weather File Run Periods
  0.04,                                   !- Loads Convergence Tolerance Value
  0.2,                                    !- Temperature Convergence Tolerance Value {deltaC}
  FullInteriorAndExterior,                !- Solar Distribution
  25,                                     !- Maximum Number of Warmup Days
  6;                                      !- Minimum Number of Warmup Days

OS:ThermalZone,
  {2b20a27c-fe11-43ce-8728-cecd511f454e}, !- Handle
  Perimeter_bot_ZN_2 Thermal Zone,        !- Name
  1,                                      !- Multiplier
  ,                                       !- Ceiling Height {m}
  ,                                       !- Volume {m3}
  ,                                       !- Floor Area {m2}
  ,                                       !- Zone Inside Convection Algorithm
  ,                                       !- Zone Outside Convection Algorithm
  ,                                       !- Zone Conditioning Equipment List Name
  {9d3dc381-eb4e-4aff-8cbf-5e7086fb0f2f}, !- Zone Air Inlet Port List
  {5fdf0ba9-f17d-4a4b-a1b2-58630cce34a5}, !- Zone Air Exhaust Port List
  {5f9ac458-0335-42c1-b9f4-f9079fc0af90}, !- Zone Air Node Name
  ,                                       !- Zone Return Air Node Name
  ,                                       !- Primary Daylighting Control Name
  ,                                       !- Fraction of Zone Controlled by Primary Daylighting Control
  ,                                       !- Secondary Daylighting Control Name
  ,                                       !- Fraction of Zone Controlled by Secondary Daylighting Control
  ,                                       !- Illuminance Map Name
  ,                                       !- Group Rendering Name
  {f4b80a43-ca1e-4485-9696-5c3f0583ac3b}, !- Thermostat Name
  Yes;                                    !- Use Ideal Air Loads

OS:Node,
  {0a415379-feaf-462d-919b-4dacb22a1583}, !- Handle
  {8eec156b-3fe3-4faf-951f-b6c0e576cd51}, !- Name
  {5f9ac458-0335-42c1-b9f4-f9079fc0af90}, !- Inlet Port
  ;                                       !- Outlet Port

OS:Connection,
  {5f9ac458-0335-42c1-b9f4-f9079fc0af90}, !- Handle
  {bbd6e164-116e-4ccf-a97d-c1edfc71ef71}, !- Name
  {2b20a27c-fe11-43ce-8728-cecd511f454e}, !- Source Object
  11,                                     !- Outlet Port
  {0a415379-feaf-462d-919b-4dacb22a1583}, !- Target Object
  2;                                      !- Inlet Port

OS:PortList,
  {9d3dc381-eb4e-4aff-8cbf-5e7086fb0f2f}, !- Handle
  {8b939c57-8818-476e-b23b-bda02b6fcd77}, !- Name
  {2b20a27c-fe11-43ce-8728-cecd511f454e}; !- HVAC Component

OS:PortList,
  {5fdf0ba9-f17d-4a4b-a1b2-58630cce34a5}, !- Handle
  {6f28d315-173e-49f8-ac0e-e45abc9a0fbd}, !- Name
  {2b20a27c-fe11-43ce-8728-cecd511f454e}; !- HVAC Component

OS:Sizing:Zone,
  {ad08f8ed-19ed-4752-b012-61578cd3aea3}, !- Handle
  {2b20a27c-fe11-43ce-8728-cecd511f454e}, !- Zone or ZoneList Name
  12.8,                                   !- Zone Cooling Design Supply Air Temperature {C}
  50,                                     !- Zone Heating Design Supply Air Temperature {C}
  0.0085,                                 !- Zone Cooling Design Supply Air Humidity Ratio {kg-H2O/kg-air}
  0.008,                                  !- Zone Heating Design Supply Air Humidity Ratio {kg-H2O/kg-air}
  ,                                       !- Zone Heating Sizing Factor
  ,                                       !- Zone Cooling Sizing Factor
  DesignDay,                              !- Cooling Design Air Flow Method
  ,                                       !- Cooling Design Air Flow Rate {m3/s}
  ,                                       !- Cooling Minimum Air Flow per Zone Floor Area {m3/s-m2}
  ,                                       !- Cooling Minimum Air Flow {m3/s}
  ,                                       !- Cooling Minimum Air Flow Fraction
  DesignDay,                              !- Heating Design Air Flow Method
  ,                                       !- Heating Design Air Flow Rate {m3/s}
  ,                                       !- Heating Maximum Air Flow per Zone Floor Area {m3/s-m2}
  ,                                       !- Heating Maximum Air Flow {m3/s}
  ,                                       !- Heating Maximum Air Flow Fraction
  ,                                       !- Design Zone Air Distribution Effectiveness in Cooling Mode
  ;                                       !- Design Zone Air Distribution Effectiveness in Heating Mode

OS:ZoneHVAC:EquipmentList,
  {c1c83aa4-f98b-421e-990f-7081f40decde}, !- Handle
  {a853d830-f32f-4b9c-8c54-216fe3db0664}, !- Name
  {2b20a27c-fe11-43ce-8728-cecd511f454e}; !- Thermal Zone

OS:Space,
  {c17c11cc-378c-4f48-a64e-05003bfedda5}, !- Handle
  Perimeter_bot_ZN_2,                     !- Name
  {fa152d6f-dcd0-47ed-a19a-3c1d64de02a1}, !- Space Type Name
  ,                                       !- Default Construction Set Name
  ,                                       !- Default Schedule Set Name
  0,                                      !- Direction of Relative North {deg}
  0,                                      !- X Origin {m}
  0,                                      !- Y Origin {m}
  0,                                      !- Z Origin {m}
  {43a4a298-89b8-4287-bd90-b674e5ac8439}, !- Building Story Name
  {2b20a27c-fe11-43ce-8728-cecd511f454e}, !- Thermal Zone Name
  Yes,                                    !- Part of Total Floor Area
  ;                                       !- Design Specification Outdoor Air Object Name

OS:Surface,
  {e5fa8271-c445-4424-a2d6-523e895f9fd8}, !- Handle
  TopFloor_Plenum_Floor_1,                !- Name
  Floor,                                  !- Surface Type
  ,                                       !- Construction Name
  {609ef047-0a05-41fe-ac37-687b78a93b88}, !- Space Name
  Surface,                                !- Outside Boundary Condition
  {3f503020-04fc-4a9a-9f6d-726f8beb9253}, !- Outside Boundary Condition Object
  NoSun,                                  !- Sun Exposure
  NoWind,                                 !- Wind Exposure
  ,                                       !- View Factor to Ground
  ,                                       !- Number of Vertices
  45.3375, 4.5732, 10.668,                !- X,Y,Z Vertex 1 {m}
  49.911, 0, 10.668,                      !- X,Y,Z Vertex 2 {m}
  0, 0, 10.668,                           !- X,Y,Z Vertex 3 {m}
  4.5732, 4.5732, 10.668;                 !- X,Y,Z Vertex 4 {m}

OS:ThermalZone,
  {aa8cd841-7700-4e36-89fa-4752275ef232}, !- Handle
  TopFloor_Plenum Thermal Zone,           !- Name
  1,                                      !- Multiplier
  ,                                       !- Ceiling Height {m}
  ,                                       !- Volume {m3}
  ,                                       !- Floor Area {m2}
  ,                                       !- Zone Inside Convection Algorithm
  ,                                       !- Zone Outside Convection Algorithm
  ,                                       !- Zone Conditioning Equipment List Name
  {855ce0a2-597f-4c53-8824-be1a25ba1230}, !- Zone Air Inlet Port List
  {f8efbfd1-3f5a-4471-b964-5edd5db007d8}, !- Zone Air Exhaust Port List
  {e4824d95-46fb-47a6-9edf-b142e90ac752}, !- Zone Air Node Name
  ,                                       !- Zone Return Air Node Name
  ,                                       !- Primary Daylighting Control Name
  ,                                       !- Fraction of Zone Controlled by Primary Daylighting Control
  ,                                       !- Secondary Daylighting Control Name
  ,                                       !- Fraction of Zone Controlled by Secondary Daylighting Control
  ,                                       !- Illuminance Map Name
  ,                                       !- Group Rendering Name
  {f4b80a43-ca1e-4485-9696-5c3f0583ac3b}, !- Thermostat Name
  Yes;                                    !- Use Ideal Air Loads

OS:Node,
  {400c26b9-97a5-4aa7-836e-5cdac07bdbe3}, !- Handle
  {6bf91817-8ab3-4446-a21a-1d1a6967a249}, !- Name
  {e4824d95-46fb-47a6-9edf-b142e90ac752}, !- Inlet Port
  ;                                       !- Outlet Port

OS:Connection,
  {e4824d95-46fb-47a6-9edf-b142e90ac752}, !- Handle
  {1846d7df-3af2-4fb8-b50c-8aaa015989b1}, !- Name
  {aa8cd841-7700-4e36-89fa-4752275ef232}, !- Source Object
  11,                                     !- Outlet Port
  {400c26b9-97a5-4aa7-836e-5cdac07bdbe3}, !- Target Object
  2;                                      !- Inlet Port

OS:PortList,
  {855ce0a2-597f-4c53-8824-be1a25ba1230}, !- Handle
  {d1114807-571d-43f3-a410-844ee1bc2673}, !- Name
  {aa8cd841-7700-4e36-89fa-4752275ef232}; !- HVAC Component

OS:PortList,
  {f8efbfd1-3f5a-4471-b964-5edd5db007d8}, !- Handle
  {aeab13dc-dccd-4d2e-a9b3-1933622e9c1f}, !- Name
  {aa8cd841-7700-4e36-89fa-4752275ef232}; !- HVAC Component

OS:Sizing:Zone,
  {c0914d3a-aaf1-4043-8b50-05fb5d60f9de}, !- Handle
  {aa8cd841-7700-4e36-89fa-4752275ef232}, !- Zone or ZoneList Name
  14,                                     !- Zone Cooling Design Supply Air Temperature {C}
  40,                                     !- Zone Heating Design Supply Air Temperature {C}
  0.0085,                                 !- Zone Cooling Design Supply Air Humidity Ratio {kg-H2O/kg-air}
  0.008,                                  !- Zone Heating Design Supply Air Humidity Ratio {kg-H2O/kg-air}
  ,                                       !- Zone Heating Sizing Factor
  ,                                       !- Zone Cooling Sizing Factor
  DesignDay,                              !- Cooling Design Air Flow Method
  ,                                       !- Cooling Design Air Flow Rate {m3/s}
  ,                                       !- Cooling Minimum Air Flow per Zone Floor Area {m3/s-m2}
  ,                                       !- Cooling Minimum Air Flow {m3/s}
  ,                                       !- Cooling Minimum Air Flow Fraction
  DesignDay,                              !- Heating Design Air Flow Method
  ,                                       !- Heating Design Air Flow Rate {m3/s}
  ,                                       !- Heating Maximum Air Flow per Zone Floor Area {m3/s-m2}
  ,                                       !- Heating Maximum Air Flow {m3/s}
  ,                                       !- Heating Maximum Air Flow Fraction
  ,                                       !- Design Zone Air Distribution Effectiveness in Cooling Mode
  ;                                       !- Design Zone Air Distribution Effectiveness in Heating Mode

OS:ZoneHVAC:EquipmentList,
  {351a9d04-cbd5-4c64-88cb-565cc16b0ae5}, !- Handle
  {f9cfd631-11ea-46cf-aa89-1e4c7a1e26f8}, !- Name
  {aa8cd841-7700-4e36-89fa-4752275ef232}; !- Thermal Zone

OS:Space,
  {609ef047-0a05-41fe-ac37-687b78a93b88}, !- Handle
  TopFloor_Plenum,                        !- Name
  {ad55fbfb-55b9-4803-98a3-b9448473450c}, !- Space Type Name
  ,                                       !- Default Construction Set Name
  ,                                       !- Default Schedule Set Name
  0,                                      !- Direction of Relative North {deg}
  0,                                      !- X Origin {m}
  0,                                      !- Y Origin {m}
  0,                                      !- Z Origin {m}
  {43a4a298-89b8-4287-bd90-b674e5ac8439}, !- Building Story Name
  {aa8cd841-7700-4e36-89fa-4752275ef232}, !- Thermal Zone Name
  No;                                     !- Part of Total Floor Area

OS:Surface,
  {798f06a0-569c-4759-a96b-7e0d42c86227}, !- Handle
  Perimeter_bot_ZN_3_Wall_North,          !- Name
  Wall,                                   !- Surface Type
  ,                                       !- Construction Name
  {073a0e50-d006-4376-947f-f2966f5cef55}, !- Space Name
  Outdoors,                               !- Outside Boundary Condition
  ,                                       !- Outside Boundary Condition Object
  SunExposed,                             !- Sun Exposure
  WindExposed,                            !- Wind Exposure
  ,                                       !- View Factor to Ground
  ,                                       !- Number of Vertices
  49.911, 33.2738, 2.7432,                !- X,Y,Z Vertex 1 {m}
  49.911, 33.2738, 0,                     !- X,Y,Z Vertex 2 {m}
  0, 33.2738, 0,                          !- X,Y,Z Vertex 3 {m}
  0, 33.2738, 2.7432;                     !- X,Y,Z Vertex 4 {m}

OS:ThermalZone,
  {907586aa-0c20-41e4-9f88-9cf82376eb99}, !- Handle
  Perimeter_bot_ZN_3 Thermal Zone,        !- Name
  1,                                      !- Multiplier
  ,                                       !- Ceiling Height {m}
  ,                                       !- Volume {m3}
  ,                                       !- Floor Area {m2}
  ,                                       !- Zone Inside Convection Algorithm
  ,                                       !- Zone Outside Convection Algorithm
  ,                                       !- Zone Conditioning Equipment List Name
  {dacf4478-f512-427a-9940-aeb88e513676}, !- Zone Air Inlet Port List
  {51393910-0852-49ff-bf35-19ca1c6b3d76}, !- Zone Air Exhaust Port List
  {57b425bc-39c1-4532-87f9-1e0f6ab74562}, !- Zone Air Node Name
  ,                                       !- Zone Return Air Node Name
  ,                                       !- Primary Daylighting Control Name
  ,                                       !- Fraction of Zone Controlled by Primary Daylighting Control
  ,                                       !- Secondary Daylighting Control Name
  ,                                       !- Fraction of Zone Controlled by Secondary Daylighting Control
  ,                                       !- Illuminance Map Name
  ,                                       !- Group Rendering Name
  {f4b80a43-ca1e-4485-9696-5c3f0583ac3b}, !- Thermostat Name
  Yes;                                    !- Use Ideal Air Loads

OS:Node,
  {be286692-3c9c-48b4-b1c8-cf7820330182}, !- Handle
  {7df7f1ee-97cc-45dc-80bf-0da30b8689bf}, !- Name
  {57b425bc-39c1-4532-87f9-1e0f6ab74562}, !- Inlet Port
  ;                                       !- Outlet Port

OS:Connection,
  {57b425bc-39c1-4532-87f9-1e0f6ab74562}, !- Handle
  {f1aac726-4a50-4440-9298-68395944b967}, !- Name
  {907586aa-0c20-41e4-9f88-9cf82376eb99}, !- Source Object
  11,                                     !- Outlet Port
  {be286692-3c9c-48b4-b1c8-cf7820330182}, !- Target Object
  2;                                      !- Inlet Port

OS:PortList,
  {dacf4478-f512-427a-9940-aeb88e513676}, !- Handle
  {a217fae4-b750-4cc0-a2ef-b7dddf289b0a}, !- Name
  {907586aa-0c20-41e4-9f88-9cf82376eb99}; !- HVAC Component

OS:PortList,
  {51393910-0852-49ff-bf35-19ca1c6b3d76}, !- Handle
  {e6aeb237-2f95-4a14-914d-f024b87e9359}, !- Name
  {907586aa-0c20-41e4-9f88-9cf82376eb99}; !- HVAC Component

OS:Sizing:Zone,
  {b6370622-c903-459d-8519-a1f5da11e371}, !- Handle
  {907586aa-0c20-41e4-9f88-9cf82376eb99}, !- Zone or ZoneList Name
  12.8,                                   !- Zone Cooling Design Supply Air Temperature {C}
  50,                                     !- Zone Heating Design Supply Air Temperature {C}
  0.0085,                                 !- Zone Cooling Design Supply Air Humidity Ratio {kg-H2O/kg-air}
  0.008,                                  !- Zone Heating Design Supply Air Humidity Ratio {kg-H2O/kg-air}
  ,                                       !- Zone Heating Sizing Factor
  ,                                       !- Zone Cooling Sizing Factor
  DesignDay,                              !- Cooling Design Air Flow Method
  ,                                       !- Cooling Design Air Flow Rate {m3/s}
  ,                                       !- Cooling Minimum Air Flow per Zone Floor Area {m3/s-m2}
  ,                                       !- Cooling Minimum Air Flow {m3/s}
  ,                                       !- Cooling Minimum Air Flow Fraction
  DesignDay,                              !- Heating Design Air Flow Method
  ,                                       !- Heating Design Air Flow Rate {m3/s}
  ,                                       !- Heating Maximum Air Flow per Zone Floor Area {m3/s-m2}
  ,                                       !- Heating Maximum Air Flow {m3/s}
  ,                                       !- Heating Maximum Air Flow Fraction
  ,                                       !- Design Zone Air Distribution Effectiveness in Cooling Mode
  ;                                       !- Design Zone Air Distribution Effectiveness in Heating Mode

OS:ZoneHVAC:EquipmentList,
  {e0ff4d31-1fe0-4631-9941-9764a82f02aa}, !- Handle
  {d36b48b2-50b8-426d-b3f2-1f313852f5f3}, !- Name
  {907586aa-0c20-41e4-9f88-9cf82376eb99}; !- Thermal Zone

OS:Space,
  {073a0e50-d006-4376-947f-f2966f5cef55}, !- Handle
  Perimeter_bot_ZN_3,                     !- Name
  {fa152d6f-dcd0-47ed-a19a-3c1d64de02a1}, !- Space Type Name
  ,                                       !- Default Construction Set Name
  ,                                       !- Default Schedule Set Name
  0,                                      !- Direction of Relative North {deg}
  0,                                      !- X Origin {m}
  0,                                      !- Y Origin {m}
  0,                                      !- Z Origin {m}
  {43a4a298-89b8-4287-bd90-b674e5ac8439}, !- Building Story Name
  {907586aa-0c20-41e4-9f88-9cf82376eb99}, !- Thermal Zone Name
  Yes,                                    !- Part of Total Floor Area
  ;                                       !- Design Specification Outdoor Air Object Name

OS:ThermalZone,
  {a3aac9f9-fa52-47f5-85cf-95a0e15163df}, !- Handle
  Perimeter_top_ZN_1 Thermal Zone,        !- Name
  1,                                      !- Multiplier
  ,                                       !- Ceiling Height {m}
  ,                                       !- Volume {m3}
  ,                                       !- Floor Area {m2}
  ,                                       !- Zone Inside Convection Algorithm
  ,                                       !- Zone Outside Convection Algorithm
  ,                                       !- Zone Conditioning Equipment List Name
  {f133059f-86c0-4b10-b371-d00c0f19737c}, !- Zone Air Inlet Port List
  {e68d106b-642e-4181-a659-7e2d673c804c}, !- Zone Air Exhaust Port List
  {eafb000f-9d21-4eea-81d4-6b34122205b7}, !- Zone Air Node Name
  ,                                       !- Zone Return Air Node Name
  ,                                       !- Primary Daylighting Control Name
  ,                                       !- Fraction of Zone Controlled by Primary Daylighting Control
  ,                                       !- Secondary Daylighting Control Name
  ,                                       !- Fraction of Zone Controlled by Secondary Daylighting Control
  ,                                       !- Illuminance Map Name
  ,                                       !- Group Rendering Name
  {f4b80a43-ca1e-4485-9696-5c3f0583ac3b}, !- Thermostat Name
  Yes;                                    !- Use Ideal Air Loads

OS:Node,
  {d59e0e29-567c-458b-8007-d8bcdca948f2}, !- Handle
  {bc6120c1-711b-4cac-85d7-55b713d43186}, !- Name
  {eafb000f-9d21-4eea-81d4-6b34122205b7}, !- Inlet Port
  ;                                       !- Outlet Port

OS:Connection,
  {eafb000f-9d21-4eea-81d4-6b34122205b7}, !- Handle
  {415fa7c0-1ebb-4e17-92dc-53e070c6c56a}, !- Name
  {a3aac9f9-fa52-47f5-85cf-95a0e15163df}, !- Source Object
  11,                                     !- Outlet Port
  {d59e0e29-567c-458b-8007-d8bcdca948f2}, !- Target Object
  2;                                      !- Inlet Port

OS:PortList,
  {f133059f-86c0-4b10-b371-d00c0f19737c}, !- Handle
  {5dc1f4b1-3d0f-45fa-b4d3-797e00d13491}, !- Name
  {a3aac9f9-fa52-47f5-85cf-95a0e15163df}; !- HVAC Component

OS:PortList,
  {e68d106b-642e-4181-a659-7e2d673c804c}, !- Handle
  {2ab75bcf-c8c0-4955-9177-f6e0303a6e07}, !- Name
  {a3aac9f9-fa52-47f5-85cf-95a0e15163df}; !- HVAC Component

OS:Sizing:Zone,
  {8d0489fa-37bd-4c7b-8d6a-1fa8dd3e938f}, !- Handle
  {a3aac9f9-fa52-47f5-85cf-95a0e15163df}, !- Zone or ZoneList Name
  12.8,                                   !- Zone Cooling Design Supply Air Temperature {C}
  50,                                     !- Zone Heating Design Supply Air Temperature {C}
  0.0085,                                 !- Zone Cooling Design Supply Air Humidity Ratio {kg-H2O/kg-air}
  0.008,                                  !- Zone Heating Design Supply Air Humidity Ratio {kg-H2O/kg-air}
  ,                                       !- Zone Heating Sizing Factor
  ,                                       !- Zone Cooling Sizing Factor
  DesignDay,                              !- Cooling Design Air Flow Method
  ,                                       !- Cooling Design Air Flow Rate {m3/s}
  ,                                       !- Cooling Minimum Air Flow per Zone Floor Area {m3/s-m2}
  ,                                       !- Cooling Minimum Air Flow {m3/s}
  ,                                       !- Cooling Minimum Air Flow Fraction
  DesignDay,                              !- Heating Design Air Flow Method
  ,                                       !- Heating Design Air Flow Rate {m3/s}
  ,                                       !- Heating Maximum Air Flow per Zone Floor Area {m3/s-m2}
  ,                                       !- Heating Maximum Air Flow {m3/s}
  ,                                       !- Heating Maximum Air Flow Fraction
  ,                                       !- Design Zone Air Distribution Effectiveness in Cooling Mode
  ;                                       !- Design Zone Air Distribution Effectiveness in Heating Mode

OS:ZoneHVAC:EquipmentList,
  {bff294ce-0a6a-4a7a-9b30-dda823ada2f0}, !- Handle
  {faaff830-e08a-47b8-85dd-8bc75238d6d5}, !- Name
  {a3aac9f9-fa52-47f5-85cf-95a0e15163df}; !- Thermal Zone

OS:Space,
  {f2e7d8bd-5bc7-43ef-b0ec-f99f6170cdc6}, !- Handle
  Perimeter_top_ZN_1,                     !- Name
  {fa152d6f-dcd0-47ed-a19a-3c1d64de02a1}, !- Space Type Name
  ,                                       !- Default Construction Set Name
  ,                                       !- Default Schedule Set Name
  0,                                      !- Direction of Relative North {deg}
  0,                                      !- X Origin {m}
  0,                                      !- Y Origin {m}
  0,                                      !- Z Origin {m}
  {43a4a298-89b8-4287-bd90-b674e5ac8439}, !- Building Story Name
  {a3aac9f9-fa52-47f5-85cf-95a0e15163df}, !- Thermal Zone Name
  Yes,                                    !- Part of Total Floor Area
  ;                                       !- Design Specification Outdoor Air Object Name

OS:ThermalZone,
  {81499dc1-3c8b-429a-8818-1723ee43ea8a}, !- Handle
  Perimeter_mid_ZN_3 Thermal Zone,        !- Name
  1,                                      !- Multiplier
  ,                                       !- Ceiling Height {m}
  ,                                       !- Volume {m3}
  ,                                       !- Floor Area {m2}
  ,                                       !- Zone Inside Convection Algorithm
  ,                                       !- Zone Outside Convection Algorithm
  ,                                       !- Zone Conditioning Equipment List Name
  {97515923-ad8f-4952-b226-b97fd1d92a13}, !- Zone Air Inlet Port List
  {21b85b3b-e4fd-47ee-9988-759624b163c8}, !- Zone Air Exhaust Port List
  {32216c4f-6fbe-40c3-8425-52eb2d53a6e3}, !- Zone Air Node Name
  ,                                       !- Zone Return Air Node Name
  ,                                       !- Primary Daylighting Control Name
  ,                                       !- Fraction of Zone Controlled by Primary Daylighting Control
  ,                                       !- Secondary Daylighting Control Name
  ,                                       !- Fraction of Zone Controlled by Secondary Daylighting Control
  ,                                       !- Illuminance Map Name
  ,                                       !- Group Rendering Name
  {f4b80a43-ca1e-4485-9696-5c3f0583ac3b}, !- Thermostat Name
  Yes;                                    !- Use Ideal Air Loads

OS:Node,
  {3a3d2298-0742-461b-a5da-1f44f3e0cfea}, !- Handle
  {a8a377ec-dca1-4a85-aac5-2aa0bcb12f9f}, !- Name
  {32216c4f-6fbe-40c3-8425-52eb2d53a6e3}, !- Inlet Port
  ;                                       !- Outlet Port

OS:Connection,
  {32216c4f-6fbe-40c3-8425-52eb2d53a6e3}, !- Handle
  {94b908f4-58c8-4f95-bfb4-0f389d44a9e2}, !- Name
  {81499dc1-3c8b-429a-8818-1723ee43ea8a}, !- Source Object
  11,                                     !- Outlet Port
  {3a3d2298-0742-461b-a5da-1f44f3e0cfea}, !- Target Object
  2;                                      !- Inlet Port

OS:PortList,
  {97515923-ad8f-4952-b226-b97fd1d92a13}, !- Handle
  {20fd8334-f769-4f0b-807f-a07b00743392}, !- Name
  {81499dc1-3c8b-429a-8818-1723ee43ea8a}; !- HVAC Component

OS:PortList,
  {21b85b3b-e4fd-47ee-9988-759624b163c8}, !- Handle
  {caae4681-3cfc-4d13-989e-c369c5aa53ab}, !- Name
  {81499dc1-3c8b-429a-8818-1723ee43ea8a}; !- HVAC Component

OS:Sizing:Zone,
  {50c07d05-3fcb-41b0-b992-f2a82b6e94d9}, !- Handle
  {81499dc1-3c8b-429a-8818-1723ee43ea8a}, !- Zone or ZoneList Name
  12.8,                                   !- Zone Cooling Design Supply Air Temperature {C}
  50,                                     !- Zone Heating Design Supply Air Temperature {C}
  0.0085,                                 !- Zone Cooling Design Supply Air Humidity Ratio {kg-H2O/kg-air}
  0.008,                                  !- Zone Heating Design Supply Air Humidity Ratio {kg-H2O/kg-air}
  ,                                       !- Zone Heating Sizing Factor
  ,                                       !- Zone Cooling Sizing Factor
  DesignDay,                              !- Cooling Design Air Flow Method
  ,                                       !- Cooling Design Air Flow Rate {m3/s}
  ,                                       !- Cooling Minimum Air Flow per Zone Floor Area {m3/s-m2}
  ,                                       !- Cooling Minimum Air Flow {m3/s}
  ,                                       !- Cooling Minimum Air Flow Fraction
  DesignDay,                              !- Heating Design Air Flow Method
  ,                                       !- Heating Design Air Flow Rate {m3/s}
  ,                                       !- Heating Maximum Air Flow per Zone Floor Area {m3/s-m2}
  ,                                       !- Heating Maximum Air Flow {m3/s}
  ,                                       !- Heating Maximum Air Flow Fraction
  ,                                       !- Design Zone Air Distribution Effectiveness in Cooling Mode
  ;                                       !- Design Zone Air Distribution Effectiveness in Heating Mode

OS:ZoneHVAC:EquipmentList,
  {709ffc32-5a1a-4e94-87db-8c20f75ef1c2}, !- Handle
  {81dd51cc-8798-400c-900c-1435289fbfac}, !- Name
  {81499dc1-3c8b-429a-8818-1723ee43ea8a}; !- Thermal Zone

OS:Space,
  {b5cd4435-65d8-4ad3-ae8f-786f8203fdd8}, !- Handle
  Perimeter_mid_ZN_3,                     !- Name
  {fa152d6f-dcd0-47ed-a19a-3c1d64de02a1}, !- Space Type Name
  ,                                       !- Default Construction Set Name
  ,                                       !- Default Schedule Set Name
  0,                                      !- Direction of Relative North {deg}
  0,                                      !- X Origin {m}
  0,                                      !- Y Origin {m}
  0,                                      !- Z Origin {m}
  {43a4a298-89b8-4287-bd90-b674e5ac8439}, !- Building Story Name
  {81499dc1-3c8b-429a-8818-1723ee43ea8a}, !- Thermal Zone Name
  Yes,                                    !- Part of Total Floor Area
  ;                                       !- Design Specification Outdoor Air Object Name

OS:ThermalZone,
  {0128ac57-d645-4c84-8b51-37fd6ace2dce}, !- Handle
  FirstFloor_Plenum Thermal Zone,         !- Name
  1,                                      !- Multiplier
  ,                                       !- Ceiling Height {m}
  ,                                       !- Volume {m3}
  ,                                       !- Floor Area {m2}
  ,                                       !- Zone Inside Convection Algorithm
  ,                                       !- Zone Outside Convection Algorithm
  ,                                       !- Zone Conditioning Equipment List Name
  {dec84da0-71a2-4480-a54d-73a1e0346d85}, !- Zone Air Inlet Port List
  {72e537d1-a993-4a99-8947-72256a1ea36c}, !- Zone Air Exhaust Port List
  {3408a56e-47b2-4920-b73f-d5f8780943fc}, !- Zone Air Node Name
  ,                                       !- Zone Return Air Node Name