
OS:Version,
  {cffa532f-8df3-4583-9ad3-0ac09fb7d7e5}, !- Handle
  1.6.0;                                  !- Version Identifier

OS:Site,
  {4e23e9d9-6379-409f-bd1e-a908ad416c8e}, !- Handle
  Calgary Int'l_AB_CAN,                   !- Name
  51.12,                                  !- Latitude {deg}
  -114.02,                                !- Longitude {deg}
  -7,                                     !- Time Zone {hr}
  1084,                                   !- Elevation {m}
  City;                                   !- Terrain

OS:SimulationControl,
  {7c43af87-b0d7-4bbb-9f89-1e1b442e2da2}, !- Handle
  Yes,                                    !- Do Zone Sizing Calculation
  Yes,                                    !- Do System Sizing Calculation
  Yes,                                    !- Do Plant Sizing Calculation
  No,                                     !- Run Simulation for Sizing Periods
  Yes,                                    !- Run Simulation for Weather File Run Periods
  0.04,                                   !- Loads Convergence Tolerance Value
  0.2,                                    !- Temperature Convergence Tolerance Value {deltaC}
  FullInteriorAndExterior,                !- Solar Distribution
  25,                                     !- Maximum Number of Warmup Days
  6;                                      !- Minimum Number of Warmup Days

OS:ThermalZone,
  {a50b47f6-1d57-4167-8bc4-9602654a23b7}, !- Handle
  T NW Apartment Thermal Zone,            !- Name
  1,                                      !- Multiplier
  ,                                       !- Ceiling Height {m}
  ,                                       !- Volume {m3}
  ,                                       !- Floor Area {m2}
  ,                                       !- Zone Inside Convection Algorithm
  ,                                       !- Zone Outside Convection Algorithm
  ,                                       !- Zone Conditioning Equipment List Name
  {ed4d3f78-b0b5-4017-a7e7-a0f81b46fd0c}, !- Zone Air Inlet Port List
  {3d067a7f-5f3b-48e4-b299-6342f63523cb}, !- Zone Air Exhaust Port List
  {fde57710-e509-45b3-a7d6-8de18bb23f48}, !- Zone Air Node Name
  ,                                       !- Zone Return Air Node Name
  ,                                       !- Primary Daylighting Control Name
  ,                                       !- Fraction of Zone Controlled by Primary Daylighting Control
  ,                                       !- Secondary Daylighting Control Name
  ,                                       !- Fraction of Zone Controlled by Secondary Daylighting Control
  ,                                       !- Illuminance Map Name
  ,                                       !- Group Rendering Name
  {6c59489b-c765-4958-9145-dc953354fe3d}, !- Thermostat Name
  Yes;                                    !- Use Ideal Air Loads

OS:Node,
  {223d1aaf-5ffe-42cf-8f2f-2f1efda9a42c}, !- Handle
  {fb6c3c42-670c-4119-ad6f-8794f561ac37}, !- Name
  {fde57710-e509-45b3-a7d6-8de18bb23f48}, !- Inlet Port
  ;                                       !- Outlet Port

OS:Connection,
  {fde57710-e509-45b3-a7d6-8de18bb23f48}, !- Handle
  {bff3f404-ba86-441e-97ab-bfa615ae04a0}, !- Name
  {a50b47f6-1d57-4167-8bc4-9602654a23b7}, !- Source Object
  11,                                     !- Outlet Port
  {223d1aaf-5ffe-42cf-8f2f-2f1efda9a42c}, !- Target Object
  2;                                      !- Inlet Port

OS:PortList,
  {ed4d3f78-b0b5-4017-a7e7-a0f81b46fd0c}, !- Handle
  {d82466b6-8a7c-4e9d-86f7-21eed65b49c5}, !- Name
  {a50b47f6-1d57-4167-8bc4-9602654a23b7}; !- HVAC Component

OS:PortList,
  {3d067a7f-5f3b-48e4-b299-6342f63523cb}, !- Handle
  {4a0a31c8-7464-4682-9c09-96a2d1840f81}, !- Name
  {a50b47f6-1d57-4167-8bc4-9602654a23b7}; !- HVAC Component

OS:Sizing:Zone,
  {9a6bd2d3-f62f-4ba5-8e96-4f21f39ec435}, !- Handle
  {a50b47f6-1d57-4167-8bc4-9602654a23b7}, !- Zone or ZoneList Name
  11.1,                                   !- Zone Cooling Design Supply Air Temperature {C}
  40,                                     !- Zone Heating Design Supply Air Temperature {C}
  0.0085,                                 !- Zone Cooling Design Supply Air Humidity Ratio {kg-H2O/kg-air}
  0.008,                                  !- Zone Heating Design Supply Air Humidity Ratio {kg-H2O/kg-air}
  ,                                       !- Zone Heating Sizing Factor
  ,                                       !- Zone Cooling Sizing Factor
  DesignDayWithLimit,                     !- Cooling Design Air Flow Method
  ,                                       !- Cooling Design Air Flow Rate {m3/s}
  ,                                       !- Cooling Minimum Air Flow per Zone Floor Area {m3/s-m2}
  0,                                      !- Cooling Minimum Air Flow {m3/s}
  0,                                      !- Cooling Minimum Air Flow Fraction
  DesignDay,                              !- Heating Design Air Flow Method
  0,                                      !- Heating Design Air Flow Rate {m3/s}
  ,                                       !- Heating Maximum Air Flow per Zone Floor Area {m3/s-m2}
  ,                                       !- Heating Maximum Air Flow {m3/s}
  ,                                       !- Heating Maximum Air Flow Fraction
  ,                                       !- Design Zone Air Distribution Effectiveness in Cooling Mode
  ;                                       !- Design Zone Air Distribution Effectiveness in Heating Mode

OS:ZoneHVAC:EquipmentList,
  {a8247ad2-54ed-49ad-b103-02f4c627e182}, !- Handle
  {1d63dd8a-e675-4036-adf2-120c3a08d484}, !- Name
  {a50b47f6-1d57-4167-8bc4-9602654a23b7}; !- Thermal Zone

OS:Space,
  {9e8a5baa-24ac-4a77-b61c-696fe23b75f2}, !- Handle
  T NW Apartment,                         !- Name
  {53e5fe3b-fa72-4d91-8151-01cb59e4078a}, !- Space Type Name
  ,                                       !- Default Construction Set Name
  ,                                       !- Default Schedule Set Name
  0,                                      !- Direction of Relative North {deg}
  0,                                      !- X Origin {m}
  9.2959,                                 !- Y Origin {m}
  9.1435,                                 !- Z Origin {m}
  {422bbeac-a1de-49a7-83fd-deaa6b0ead69}, !- Building Story Name
  {a50b47f6-1d57-4167-8bc4-9602654a23b7}, !- Thermal Zone Name
  Yes,                                    !- Part of Total Floor Area
  ;                                       !- Design Specification Outdoor Air Object Name

OS:ThermalZone,
  {4a80989a-796b-4260-9c03-e780f5188dda}, !- Handle
  M NW Apartment Thermal Zone,            !- Name
  2,                                      !- Multiplier
  ,                                       !- Ceiling Height {m}
  ,                                       !- Volume {m3}
  ,                                       !- Floor Area {m2}
  ,                                       !- Zone Inside Convection Algorithm
  ,                                       !- Zone Outside Convection Algorithm
  ,                                       !- Zone Conditioning Equipment List Name
  {77ddd4c0-1b6c-40c0-b3bf-ee7476de214e}, !- Zone Air Inlet Port List
  {c2eb69a5-5f5d-4e81-95e1-2d83369a867b}, !- Zone Air Exhaust Port List
  {9cc4b3ab-c086-49de-aeff-7d7b318a35fe}, !- Zone Air Node Name
  ,                                       !- Zone Return Air Node Name
  ,                                       !- Primary Daylighting Control Name
  ,                                       !- Fraction of Zone Controlled by Primary Daylighting Control
  ,                                       !- Secondary Daylighting Control Name
  ,                                       !- Fraction of Zone Controlled by Secondary Daylighting Control
  ,                                       !- Illuminance Map Name
  ,                                       !- Group Rendering Name
  {6c59489b-c765-4958-9145-dc953354fe3d}, !- Thermostat Name
  Yes;                                    !- Use Ideal Air Loads

OS:Node,
  {b2c026e8-c922-42fa-b682-fe1ec1728257}, !- Handle
  {13715986-8248-48ca-b0e0-fa5f9b30cafd}, !- Name
  {9cc4b3ab-c086-49de-aeff-7d7b318a35fe}, !- Inlet Port
  ;                                       !- Outlet Port

OS:Connection,
  {9cc4b3ab-c086-49de-aeff-7d7b318a35fe}, !- Handle
  {d1f5cefb-27b2-45a6-bc74-65d4a700132d}, !- Name
  {4a80989a-796b-4260-9c03-e780f5188dda}, !- Source Object
  11,                                     !- Outlet Port
  {b2c026e8-c922-42fa-b682-fe1ec1728257}, !- Target Object
  2;                                      !- Inlet Port

OS:PortList,
  {77ddd4c0-1b6c-40c0-b3bf-ee7476de214e}, !- Handle
  {000e3d55-7173-42f1-ad80-08fdcc697047}, !- Name
  {4a80989a-796b-4260-9c03-e780f5188dda}; !- HVAC Component

OS:PortList,
  {c2eb69a5-5f5d-4e81-95e1-2d83369a867b}, !- Handle
  {b8638ead-9094-4f7e-9272-766a377e234d}, !- Name
  {4a80989a-796b-4260-9c03-e780f5188dda}; !- HVAC Component

OS:Sizing:Zone,
  {9759225a-696b-4434-94d2-8e513da3d50d}, !- Handle
  {4a80989a-796b-4260-9c03-e780f5188dda}, !- Zone or ZoneList Name
  11.1,                                   !- Zone Cooling Design Supply Air Temperature {C}
  40,                                     !- Zone Heating Design Supply Air Temperature {C}
  0.0085,                                 !- Zone Cooling Design Supply Air Humidity Ratio {kg-H2O/kg-air}
  0.008,                                  !- Zone Heating Design Supply Air Humidity Ratio {kg-H2O/kg-air}
  ,                                       !- Zone Heating Sizing Factor
  ,                                       !- Zone Cooling Sizing Factor
  DesignDayWithLimit,                     !- Cooling Design Air Flow Method
  ,                                       !- Cooling Design Air Flow Rate {m3/s}
  ,                                       !- Cooling Minimum Air Flow per Zone Floor Area {m3/s-m2}
  0,                                      !- Cooling Minimum Air Flow {m3/s}
  0,                                      !- Cooling Minimum Air Flow Fraction
  DesignDay,                              !- Heating Design Air Flow Method
  0,                                      !- Heating Design Air Flow Rate {m3/s}
  ,                                       !- Heating Maximum Air Flow per Zone Floor Area {m3/s-m2}
  ,                                       !- Heating Maximum Air Flow {m3/s}
  ,                                       !- Heating Maximum Air Flow Fraction
  ,                                       !- Design Zone Air Distribution Effectiveness in Cooling Mode
  ;                                       !- Design Zone Air Distribution Effectiveness in Heating Mode

OS:ZoneHVAC:EquipmentList,
  {1a290eb0-0230-4e9c-ab93-79f34c07fde5}, !- Handle
  {0d197d83-d6a4-4a86-a201-326b7ce3f7f3}, !- Name
  {4a80989a-796b-4260-9c03-e780f5188dda}; !- Thermal Zone

OS:Space,
  {b080a569-4af0-4007-8cbd-39d668160ddf}, !- Handle
  M NW Apartment,                         !- Name
  {53e5fe3b-fa72-4d91-8151-01cb59e4078a}, !- Space Type Name
  ,                                       !- Default Construction Set Name
  ,                                       !- Default Schedule Set Name
  0,                                      !- Direction of Relative North {deg}
  0,                                      !- X Origin {m}
  9.2959,                                 !- Y Origin {m}
  3.0478,                                 !- Z Origin {m}
  {2a14fefa-7e81-44d7-90e3-59ec929aa983}, !- Building Story Name
  {4a80989a-796b-4260-9c03-e780f5188dda}, !- Thermal Zone Name
  Yes,                                    !- Part of Total Floor Area
  ;                                       !- Design Specification Outdoor Air Object Name

OS:Meter,
  {bf62a4be-c1d9-47b1-a41a-58f74bcf3ec2}, !- Handle
  Cooling:Electricity,                    !- Name
  hourly,                                 !- Reporting Frequency
  False,                                  !- Meter File Only
  False;                                  !- Cumulative

OS:Surface,
  {e75828d3-6867-4714-89d3-d563b0831173}, !- Handle
  m Ceilin NEA,                           !- Name
  RoofCeiling,                            !- Surface Type
  ,                                       !- Construction Name
  {94062924-1831-4eb5-b4bc-22ece474f9d5}, !- Space Name
  Outdoors,                               !- Outside Boundary Condition
  ,                                       !- Outside Boundary Condition Object
  SunExposed,                             !- Sun Exposure
  WindExposed,                            !- Wind Exposure
  ,                                       !- View Factor to Ground
  ,                                       !- Number of Vertices
  11.5818, 0, 3.0478,                     !- X,Y,Z Vertex 1 {m}
  11.5818, 7.6196, 3.0478,                !- X,Y,Z Vertex 2 {m}
  0, 7.6196, 3.0478,                      !- X,Y,Z Vertex 3 {m}
  0, 0, 3.0478;                           !- X,Y,Z Vertex 4 {m}

OS:ThermalZone,
  {d2c837dd-e51b-4ad5-a40f-cf5d6202bac5}, !- Handle
  M NE Apartment Thermal Zone,            !- Name
  2,                                      !- Multiplier
  ,                                       !- Ceiling Height {m}
  ,                                       !- Volume {m3}
  ,                                       !- Floor Area {m2}
  ,                                       !- Zone Inside Convection Algorithm
  ,                                       !- Zone Outside Convection Algorithm
  ,                                       !- Zone Conditioning Equipment List Name
  {d83a91cf-4769-41bc-83fc-1efa7e3b2bdf}, !- Zone Air Inlet Port List
  {d583ee7a-4559-45d6-bfe0-b1389c93218f}, !- Zone Air Exhaust Port List
  {e4ab3b30-cde7-453d-aa8b-1acf6c9dbc95}, !- Zone Air Node Name
  ,                                       !- Zone Return Air Node Name
  ,                                       !- Primary Daylighting Control Name
  ,                                       !- Fraction of Zone Controlled by Primary Daylighting Control
  ,                                       !- Secondary Daylighting Control Name
  ,                                       !- Fraction of Zone Controlled by Secondary Daylighting Control
  ,                                       !- Illuminance Map Name
  ,                                       !- Group Rendering Name
  {6c59489b-c765-4958-9145-dc953354fe3d}, !- Thermostat Name
  Yes;                                    !- Use Ideal Air Loads

OS:Node,
  {78515132-c1e6-4a8e-8f48-413a4a013c93}, !- Handle
  {ff84c9a6-c6ba-47d1-aa0e-d6741492b8d3}, !- Name
  {e4ab3b30-cde7-453d-aa8b-1acf6c9dbc95}, !- Inlet Port
  ;                                       !- Outlet Port

OS:Connection,
  {e4ab3b30-cde7-453d-aa8b-1acf6c9dbc95}, !- Handle
  {33de6612-7cea-4973-a70a-ec861b2ad15f}, !- Name
  {d2c837dd-e51b-4ad5-a40f-cf5d6202bac5}, !- Source Object
  11,                                     !- Outlet Port
  {78515132-c1e6-4a8e-8f48-413a4a013c93}, !- Target Object
  2;                                      !- Inlet Port

OS:PortList,
  {d83a91cf-4769-41bc-83fc-1efa7e3b2bdf}, !- Handle
  {4f3164d9-9095-4ada-b66b-8d0c3d104598}, !- Name
  {d2c837dd-e51b-4ad5-a40f-cf5d6202bac5}; !- HVAC Component

OS:PortList,
  {d583ee7a-4559-45d6-bfe0-b1389c93218f}, !- Handle
  {6c536fd5-7bb2-4e95-b608-52153d0284a6}, !- Name
  {d2c837dd-e51b-4ad5-a40f-cf5d6202bac5}; !- HVAC Component

OS:Sizing:Zone,
  {18a226f8-ed58-4cd2-b4c7-f48f6b90dbbb}, !- Handle
  {d2c837dd-e51b-4ad5-a40f-cf5d6202bac5}, !- Zone or ZoneList Name
  11.1,                                   !- Zone Cooling Design Supply Air Temperature {C}
  40,                                     !- Zone Heating Design Supply Air Temperature {C}
  0.0085,                                 !- Zone Cooling Design Supply Air Humidity Ratio {kg-H2O/kg-air}
  0.008,                                  !- Zone Heating Design Supply Air Humidity Ratio {kg-H2O/kg-air}
  ,                                       !- Zone Heating Sizing Factor
  ,                                       !- Zone Cooling Sizing Factor
  DesignDayWithLimit,                     !- Cooling Design Air Flow Method
  ,                                       !- Cooling Design Air Flow Rate {m3/s}
  ,                                       !- Cooling Minimum Air Flow per Zone Floor Area {m3/s-m2}
  0,                                      !- Cooling Minimum Air Flow {m3/s}
  0,                                      !- Cooling Minimum Air Flow Fraction
  DesignDay,                              !- Heating Design Air Flow Method
  0,                                      !- Heating Design Air Flow Rate {m3/s}
  ,                                       !- Heating Maximum Air Flow per Zone Floor Area {m3/s-m2}
  ,                                       !- Heating Maximum Air Flow {m3/s}
  ,                                       !- Heating Maximum Air Flow Fraction
  ,                                       !- Design Zone Air Distribution Effectiveness in Cooling Mode
  ;                                       !- Design Zone Air Distribution Effectiveness in Heating Mode

OS:ZoneHVAC:EquipmentList,
  {808137f4-0d5b-4739-9b71-887edcc9959e}, !- Handle
  {aecf5096-bae6-4d99-988f-b2d2ca1a0ed4}, !- Name
  {d2c837dd-e51b-4ad5-a40f-cf5d6202bac5}; !- Thermal Zone

OS:Space,
  {94062924-1831-4eb5-b4bc-22ece474f9d5}, !- Handle
  M NE Apartment,                         !- Name
  {53e5fe3b-fa72-4d91-8151-01cb59e4078a}, !- Space Type Name
  ,                                       !- Default Construction Set Name
  ,                                       !- Default Schedule Set Name
  0,                                      !- Direction of Relative North {deg}
  34.7455,                                !- X Origin {m}
  9.2959,                                 !- Y Origin {m}
  3.0478,                                 !- Z Origin {m}
  {2a14fefa-7e81-44d7-90e3-59ec929aa983}, !- Building Story Name
  {d2c837dd-e51b-4ad5-a40f-cf5d6202bac5}, !- Thermal Zone Name
  Yes,                                    !- Part of Total Floor Area
  ;                                       !- Design Specification Outdoor Air Object Name

OS:ThermalZone,
  {67965afd-1e02-4554-9f30-72aa218f32a9}, !- Handle
  M S1 Apartment Thermal Zone,            !- Name
  2,                                      !- Multiplier
  ,                                       !- Ceiling Height {m}
  ,                                       !- Volume {m3}
  ,                                       !- Floor Area {m2}
  ,                                       !- Zone Inside Convection Algorithm
  ,                                       !- Zone Outside Convection Algorithm
  ,                                       !- Zone Conditioning Equipment List Name
  {bf010439-cb1b-41f1-860d-3ac9a65e5ba3}, !- Zone Air Inlet Port List
  {8df52ce5-ac81-4eab-99b3-2addb702dca0}, !- Zone Air Exhaust Port List
  {f29c4594-65a1-48cf-829f-22a8381dd9c0}, !- Zone Air Node Name
  ,                                       !- Zone Return Air Node Name
  ,                                       !- Primary Daylighting Control Name
  ,                                       !- Fraction of Zone Controlled by Primary Daylighting Control
  ,                                       !- Secondary Daylighting Control Name
  ,                                       !- Fraction of Zone Controlled by Secondary Daylighting Control
  ,                                       !- Illuminance Map Name
  ,                                       !- Group Rendering Name
  {6c59489b-c765-4958-9145-dc953354fe3d}, !- Thermostat Name
  Yes;                                    !- Use Ideal Air Loads

OS:Node,
  {1ee724b4-58ba-4b0a-b660-d33bab47ed52}, !- Handle
  {fe5f3219-49ab-42b3-bd1b-a51d4efa24f1}, !- Name
  {f29c4594-65a1-48cf-829f-22a8381dd9c0}, !- Inlet Port
  ;                                       !- Outlet Port

OS:Connection,
  {f29c4594-65a1-48cf-829f-22a8381dd9c0}, !- Handle
  {b2b30ca8-e8e8-48bf-ac5e-741b2f384b5e}, !- Name
  {67965afd-1e02-4554-9f30-72aa218f32a9}, !- Source Object
  11,                                     !- Outlet Port
  {1ee724b4-58ba-4b0a-b660-d33bab47ed52}, !- Target Object
  2;                                      !- Inlet Port

OS:PortList,
  {bf010439-cb1b-41f1-860d-3ac9a65e5ba3}, !- Handle
  {f4063574-de2f-458d-9374-c78786255f41}, !- Name
  {67965afd-1e02-4554-9f30-72aa218f32a9}; !- HVAC Component

OS:PortList,
  {8df52ce5-ac81-4eab-99b3-2addb702dca0}, !- Handle
  {aec09cf2-5e6b-4055-b025-9f7ad4580730}, !- Name
  {67965afd-1e02-4554-9f30-72aa218f32a9}; !- HVAC Component

OS:Sizing:Zone,
  {3a764efb-85c3-4a25-88b9-7d6259521361}, !- Handle
  {67965afd-1e02-4554-9f30-72aa218f32a9}, !- Zone or ZoneList Name
  11.1,                                   !- Zone Cooling Design Supply Air Temperature {C}
  40,                                     !- Zone Heating Design Supply Air Temperature {C}
  0.0085,                                 !- Zone Cooling Design Supply Air Humidity Ratio {kg-H2O/kg-air}
  0.008,                                  !- Zone Heating Design Supply Air Humidity Ratio {kg-H2O/kg-air}
  ,                                       !- Zone Heating Sizing Factor
  ,                                       !- Zone Cooling Sizing Factor
  DesignDayWithLimit,                     !- Cooling Design Air Flow Method
  ,                                       !- Cooling Design Air Flow Rate {m3/s}
  ,                                       !- Cooling Minimum Air Flow per Zone Floor Area {m3/s-m2}
  0,                                      !- Cooling Minimum Air Flow {m3/s}
  0,                                      !- Cooling Minimum Air Flow Fraction
  DesignDay,                              !- Heating Design Air Flow Method
  0,                                      !- Heating Design Air Flow Rate {m3/s}
  ,                                       !- Heating Maximum Air Flow per Zone Floor Area {m3/s-m2}
  ,                                       !- Heating Maximum Air Flow {m3/s}
  ,                                       !- Heating Maximum Air Flow Fraction
  ,                                       !- Design Zone Air Distribution Effectiveness in Cooling Mode
  ;                                       !- Design Zone Air Distribution Effectiveness in Heating Mode

OS:ZoneHVAC:EquipmentList,
  {72aa37b7-ca35-4abb-86e0-d88bcdfbfb48}, !- Handle
  {a89542b0-9d60-4dd3-b5d6-65933031c67c}, !- Name
  {67965afd-1e02-4554-9f30-72aa218f32a9}; !- Thermal Zone

OS:Space,
  {6b3ffae9-410a-462b-acbe-905b49e4a44b}, !- Handle
  M S1 Apartment,                         !- Name
  {53e5fe3b-fa72-4d91-8151-01cb59e4078a}, !- Space Type Name
  ,                                       !- Default Construction Set Name
  ,                                       !- Default Schedule Set Name
  0,                                      !- Direction of Relative North {deg}
  11.5818,                                !- X Origin {m}
  0,                                      !- Y Origin {m}
  3.0478,                                 !- Z Origin {m}
  {2a14fefa-7e81-44d7-90e3-59ec929aa983}, !- Building Story Name
  {67965afd-1e02-4554-9f30-72aa218f32a9}, !- Thermal Zone Name
  Yes,                                    !- Part of Total Floor Area
  ;                                       !- Design Specification Outdoor Air Object Name

OS:Meter,
  {c4c3b17b-2715-4053-aefd-7e68dd7b2b7f}, !- Handle
  InteriorEquipment:Gas,                  !- Name
  hourly,                                 !- Reporting Frequency
  False,                                  !- Meter File Only
  False;                                  !- Cumulative

OS:ThermalZone,
  {4496df87-6cee-4fd0-8036-67bd0af2abfa}, !- Handle
  T N1 Apartment Thermal Zone,            !- Name
  1,                                      !- Multiplier
  ,                                       !- Ceiling Height {m}
  ,                                       !- Volume {m3}
  ,                                       !- Floor Area {m2}
  ,                                       !- Zone Inside Convection Algorithm
  ,                                       !- Zone Outside Convection Algorithm
  ,                                       !- Zone Conditioning Equipment List Name
  {28087125-8af2-49b0-95a6-3920ce724537}, !- Zone Air Inlet Port List
  {84604236-7b58-4903-a1d0-376a0b62d53a}, !- Zone Air Exhaust Port List
  {adac1ad8-9f48-4524-9a4d-1f86820a5de9}, !- Zone Air Node Name
  ,                                       !- Zone Return Air Node Name
  ,                                       !- Primary Daylighting Control Name
  ,                                       !- Fraction of Zone Controlled by Primary Daylighting Control
  ,                                       !- Secondary Daylighting Control Name
  ,                                       !- Fraction of Zone Controlled by Secondary Daylighting Control
  ,                                       !- Illuminance Map Name
  ,                                       !- Group Rendering Name
  {6c59489b-c765-4958-9145-dc953354fe3d}, !- Thermostat Name
  Yes;                                    !- Use Ideal Air Loads

OS:Node,
  {54e95bbd-d681-4765-a00b-989cf7e4f70f}, !- Handle
  {a9026938-a3bc-4172-a836-397c098d4e33}, !- Name
  {adac1ad8-9f48-4524-9a4d-1f86820a5de9}, !- Inlet Port
  ;                                       !- Outlet Port

OS:Connection,
  {adac1ad8-9f48-4524-9a4d-1f86820a5de9}, !- Handle
  {06d14f3e-3cbd-4e35-b67b-368fe191e7dd}, !- Name
  {4496df87-6cee-4fd0-8036-67bd0af2abfa}, !- Source Object
  11,                                     !- Outlet Port
  {54e95bbd-d681-4765-a00b-989cf7e4f70f}, !- Target Object
  2;                                      !- Inlet Port

OS:PortList,
  {28087125-8af2-49b0-95a6-3920ce724537}, !- Handle
  {b08b6333-36d0-495a-8bf3-53aa2e8c5771}, !- Name
  {4496df87-6cee-4fd0-8036-67bd0af2abfa}; !- HVAC Component

OS:PortList,
  {84604236-7b58-4903-a1d0-376a0b62d53a}, !- Handle
  {bf2059ee-2546-43d5-9d4f-a3dc397a8e32}, !- Name
  {4496df87-6cee-4fd0-8036-67bd0af2abfa}; !- HVAC Component

OS:Sizing:Zone,
  {2ed6b4e7-dd90-42ee-889f-0fd60b54a584}, !- Handle
  {4496df87-6cee-4fd0-8036-67bd0af2abfa}, !- Zone or ZoneList Name
  11.1,                                   !- Zone Cooling Design Supply Air Temperature {C}
  40,                                     !- Zone Heating Design Supply Air Temperature {C}
  0.0085,                                 !- Zone Cooling Design Supply Air Humidity Ratio {kg-H2O/kg-air}
  0.008,                                  !- Zone Heating Design Supply Air Humidity Ratio {kg-H2O/kg-air}
  ,                                       !- Zone Heating Sizing Factor
  ,                                       !- Zone Cooling Sizing Factor
  DesignDayWithLimit,                     !- Cooling Design Air Flow Method
  ,                                       !- Cooling Design Air Flow Rate {m3/s}
  ,                                       !- Cooling Minimum Air Flow per Zone Floor Area {m3/s-m2}
  0,                                      !- Cooling Minimum Air Flow {m3/s}
  0,                                      !- Cooling Minimum Air Flow Fraction
  DesignDay,                              !- Heating Design Air Flow Method
  0,                                      !- Heating Design Air Flow Rate {m3/s}
  ,                                       !- Heating Maximum Air Flow per Zone Floor Area {m3/s-m2}
  ,                                       !- Heating Maximum Air Flow {m3/s}
  ,                                       !- Heating Maximum Air Flow Fraction
  ,                                       !- Design Zone Air Distribution Effectiveness in Cooling Mode
  ;                                       !- Design Zone Air Distribution Effectiveness in Heating Mode

OS:ZoneHVAC:EquipmentList,
  {5c4dbc56-00f3-4b4a-9fc4-1179134b6c83}, !- Handle
  {c22241c9-d94c-4a57-8ac2-f0194acccd07}, !- Name
  {4496df87-6cee-4fd0-8036-67bd0af2abfa}; !- Thermal Zone

OS:Space,
  {f935ce08-b740-4855-83f2-8971270eff5e}, !- Handle
  T N1 Apartment,                         !- Name
  {53e5fe3b-fa72-4d91-8151-01cb59e4078a}, !- Space Type Name
  ,                                       !- Default Construction Set Name
  ,                                       !- Default Schedule Set Name
  0,                                      !- Direction of Relative North {deg}
  11.5818,                                !- X Origin {m}
  9.2959,                                 !- Y Origin {m}
  9.1435,                                 !- Z Origin {m}
  {422bbeac-a1de-49a7-83fd-deaa6b0ead69}, !- Building Story Name
  {4496df87-6cee-4fd0-8036-67bd0af2abfa}, !- Thermal Zone Name
  Yes,                                    !- Part of Total Floor Area
  ;                                       !- Design Specification Outdoor Air Object Name

OS:Surface,
  {7ccfaa86-ca36-470b-a24f-85bb3b6d5b88}, !- Handle
  m SWall S1A,                            !- Name
  Wall,                                   !- Surface Type
  ,                                       !- Construction Name
  {6b3ffae9-410a-462b-acbe-905b49e4a44b}, !- Space Name
  Outdoors,                               !- Outside Boundary Condition
  ,                                       !- Outside Boundary Condition Object
  SunExposed,                             !- Sun Exposure
  WindExposed,                            !- Wind Exposure
  ,                                       !- View Factor to Ground
  ,                                       !- Number of Vertices
  0, 0, 3.0478,                           !- X,Y,Z Vertex 1 {m}
  0, 0, 0,                                !- X,Y,Z Vertex 2 {m}
  11.5818, 0, 0,                          !- X,Y,Z Vertex 3 {m}
  11.5818, 0, 3.0478;                     !- X,Y,Z Vertex 4 {m}

OS:Surface,
  {e22eea12-9a7f-4aa0-a64f-2364800644d9}, !- Handle
  t NWall NWA,                            !- Name
  Wall,                                   !- Surface Type