
OS:Version,
  {1a092365-2100-46f1-89e2-c97660309fc1}, !- Handle
  1.6.0;                                  !- Version Identifier

OS:Site,
  {8af4c1d1-d9d3-4ef0-b2bc-43733794dd89}, !- Handle
  Calgary Int'l_AB_CAN,                   !- Name
  51.12,                                  !- Latitude {deg}
  -114.02,                                !- Longitude {deg}
  -7,                                     !- Time Zone {hr}
  1084,                                   !- Elevation {m}
  City;                                   !- Terrain

OS:SimulationControl,
  {5883bc5a-7720-4737-b472-34bbb424019e}, !- Handle
  Yes,                                    !- Do Zone Sizing Calculation
  Yes,                                    !- Do System Sizing Calculation
  Yes,                                    !- Do Plant Sizing Calculation
  No,                                     !- Run Simulation for Sizing Periods
  Yes,                                    !- Run Simulation for Weather File Run Periods
  0.04,                                   !- Loads Convergence Tolerance Value
  0.2,                                    !- Temperature Convergence Tolerance Value {deltaC}
  FullInteriorAndExterior,                !- Solar Distribution
  25,                                     !- Maximum Number of Warmup Days
  6;                                      !- Minimum Number of Warmup Days

OS:ThermalZone,
  {80b73ec3-a48f-4c16-b9b1-5702766aa1b2}, !- Handle
  Floor 3 Treatment Thermal Zone,         !- Name
  1,                                      !- Multiplier
  ,                                       !- Ceiling Height {m}
  ,                                       !- Volume {m3}
  ,                                       !- Floor Area {m2}
  ,                                       !- Zone Inside Convection Algorithm
  ,                                       !- Zone Outside Convection Algorithm
  ,                                       !- Zone Conditioning Equipment List Name
  {7fdfcc54-a05f-4f95-9c8e-9b5c11613775}, !- Zone Air Inlet Port List
  {fc896cb6-c7c5-4a3b-9482-f670f003a87b}, !- Zone Air Exhaust Port List
  {14f46d98-5ee3-4116-912c-237cbd4afeb2}, !- Zone Air Node Name
  ,                                       !- Zone Return Air Node Name
  ,                                       !- Primary Daylighting Control Name
  ,                                       !- Fraction of Zone Controlled by Primary Daylighting Control
  ,                                       !- Secondary Daylighting Control Name
  ,                                       !- Fraction of Zone Controlled by Secondary Daylighting Control
  ,                                       !- Illuminance Map Name
  ,                                       !- Group Rendering Name
  {3a2f89e8-d23f-4760-81d5-8f4ed3f30675}, !- Thermostat Name
  Yes;                                    !- Use Ideal Air Loads

OS:Node,
  {10839c75-b9fc-4b32-9024-8a9fbc8d8ecc}, !- Handle
  {81310c55-588a-44d5-b5bb-ce052feb8309}, !- Name
  {14f46d98-5ee3-4116-912c-237cbd4afeb2}, !- Inlet Port
  ;                                       !- Outlet Port

OS:Connection,
  {14f46d98-5ee3-4116-912c-237cbd4afeb2}, !- Handle
  {02b9d9d4-da6e-446e-8289-a2df672a9c99}, !- Name
  {80b73ec3-a48f-4c16-b9b1-5702766aa1b2}, !- Source Object
  11,                                     !- Outlet Port
  {10839c75-b9fc-4b32-9024-8a9fbc8d8ecc}, !- Target Object
  2;                                      !- Inlet Port

OS:PortList,
  {7fdfcc54-a05f-4f95-9c8e-9b5c11613775}, !- Handle
  {cb53e069-121f-4900-a802-f97f2ad08d47}, !- Name
  {80b73ec3-a48f-4c16-b9b1-5702766aa1b2}; !- HVAC Component

OS:PortList,
  {fc896cb6-c7c5-4a3b-9482-f670f003a87b}, !- Handle
  {65342906-500e-497e-80a3-471ed58bb0ba}, !- Name
  {80b73ec3-a48f-4c16-b9b1-5702766aa1b2}; !- HVAC Component

OS:Sizing:Zone,
  {0be4d5ed-1dfd-4e47-8249-2e569130504c}, !- Handle
  {80b73ec3-a48f-4c16-b9b1-5702766aa1b2}, !- Zone or ZoneList Name
  12.8,                                   !- Zone Cooling Design Supply Air Temperature {C}
  40,                                     !- Zone Heating Design Supply Air Temperature {C}
  0.0085,                                 !- Zone Cooling Design Supply Air Humidity Ratio {kg-H2O/kg-air}
  0.008,                                  !- Zone Heating Design Supply Air Humidity Ratio {kg-H2O/kg-air}
  ,                                       !- Zone Heating Sizing Factor
  ,                                       !- Zone Cooling Sizing Factor
  DesignDayWithLimit,                     !- Cooling Design Air Flow Method
  ,                                       !- Cooling Design Air Flow Rate {m3/s}
  ,                                       !- Cooling Minimum Air Flow per Zone Floor Area {m3/s-m2}
  0.224647,                               !- Cooling Minimum Air Flow {m3/s}
  ,                                       !- Cooling Minimum Air Flow Fraction
  DesignDay,                              !- Heating Design Air Flow Method
  ,                                       !- Heating Design Air Flow Rate {m3/s}
  ,                                       !- Heating Maximum Air Flow per Zone Floor Area {m3/s-m2}
  ,                                       !- Heating Maximum Air Flow {m3/s}
  ,                                       !- Heating Maximum Air Flow Fraction
  ,                                       !- Design Zone Air Distribution Effectiveness in Cooling Mode
  ;                                       !- Design Zone Air Distribution Effectiveness in Heating Mode

OS:ZoneHVAC:EquipmentList,
  {8e0c0fca-f95e-4c96-9570-9682c50c97f8}, !- Handle
  {a0e5d178-e2ef-4e4b-9435-0f920113008e}, !- Name
  {80b73ec3-a48f-4c16-b9b1-5702766aa1b2}; !- Thermal Zone

OS:Space,
  {32f7f290-1425-4bea-9640-a95ba959de42}, !- Handle
  Floor 3 Treatment,                      !- Name
  {c69b4a48-13c1-412a-89f8-79acdafb47f0}, !- Space Type Name
  ,                                       !- Default Construction Set Name
  ,                                       !- Default Schedule Set Name
  0,                                      !- Direction of Relative North {deg}
  30.7848,                                !- X Origin {m}
  0,                                      !- Y Origin {m}
  6.096,                                  !- Z Origin {m}
  {84daf912-45b6-4f0a-81de-d0203bd7c6c9}, !- Building Story Name
  {80b73ec3-a48f-4c16-b9b1-5702766aa1b2}, !- Thermal Zone Name
  Yes,                                    !- Part of Total Floor Area
  ;                                       !- Design Specification Outdoor Air Object Name

OS:ThermalZone,
  {415b7187-e061-42d4-a30f-ce081c94bfab}, !- Handle
  Floor 1 Office Thermal Zone,            !- Name
  1,                                      !- Multiplier
  ,                                       !- Ceiling Height {m}
  ,                                       !- Volume {m3}
  ,                                       !- Floor Area {m2}
  ,                                       !- Zone Inside Convection Algorithm
  ,                                       !- Zone Outside Convection Algorithm
  ,                                       !- Zone Conditioning Equipment List Name
  {ef9b2695-d7a8-43bf-bbb1-f55e0881bbdd}, !- Zone Air Inlet Port List
  {64a0efda-2945-4326-be14-bc14b49a9d6e}, !- Zone Air Exhaust Port List
  {b8ee97ec-1ffc-4e54-aed5-88f8fb1b7a37}, !- Zone Air Node Name
  ,                                       !- Zone Return Air Node Name
  ,                                       !- Primary Daylighting Control Name
  ,                                       !- Fraction of Zone Controlled by Primary Daylighting Control
  ,                                       !- Secondary Daylighting Control Name
  ,                                       !- Fraction of Zone Controlled by Secondary Daylighting Control
  ,                                       !- Illuminance Map Name
  ,                                       !- Group Rendering Name
  {3a2f89e8-d23f-4760-81d5-8f4ed3f30675}, !- Thermostat Name
  Yes;                                    !- Use Ideal Air Loads

OS:Node,
  {e9c903b8-8e14-4b11-ba26-e767eb9b9349}, !- Handle
  {18871239-a9ee-4230-976c-26a1e994a69d}, !- Name
  {b8ee97ec-1ffc-4e54-aed5-88f8fb1b7a37}, !- Inlet Port
  ;                                       !- Outlet Port

OS:Connection,
  {b8ee97ec-1ffc-4e54-aed5-88f8fb1b7a37}, !- Handle
  {fd274d3f-1177-48bf-b5e8-d09ef3c1004e}, !- Name
  {415b7187-e061-42d4-a30f-ce081c94bfab}, !- Source Object
  11,                                     !- Outlet Port
  {e9c903b8-8e14-4b11-ba26-e767eb9b9349}, !- Target Object
  2;                                      !- Inlet Port

OS:PortList,
  {ef9b2695-d7a8-43bf-bbb1-f55e0881bbdd}, !- Handle
  {875a3584-0c4e-4758-8ea3-83e5019a32be}, !- Name
  {415b7187-e061-42d4-a30f-ce081c94bfab}; !- HVAC Component

OS:PortList,
  {64a0efda-2945-4326-be14-bc14b49a9d6e}, !- Handle
  {087149aa-73d2-4985-a694-38e135921056}, !- Name
  {415b7187-e061-42d4-a30f-ce081c94bfab}; !- HVAC Component

OS:Sizing:Zone,
  {ee864312-9675-47fb-94df-35b277bbb8bc}, !- Handle
  {415b7187-e061-42d4-a30f-ce081c94bfab}, !- Zone or ZoneList Name
  11.1,                                   !- Zone Cooling Design Supply Air Temperature {C}
  40,                                     !- Zone Heating Design Supply Air Temperature {C}
  0.0085,                                 !- Zone Cooling Design Supply Air Humidity Ratio {kg-H2O/kg-air}
  0.008,                                  !- Zone Heating Design Supply Air Humidity Ratio {kg-H2O/kg-air}
  ,                                       !- Zone Heating Sizing Factor
  ,                                       !- Zone Cooling Sizing Factor
  DesignDayWithLimit,                     !- Cooling Design Air Flow Method
  ,                                       !- Cooling Design Air Flow Rate {m3/s}
  ,                                       !- Cooling Minimum Air Flow per Zone Floor Area {m3/s-m2}
  ,                                       !- Cooling Minimum Air Flow {m3/s}
  ,                                       !- Cooling Minimum Air Flow Fraction
  DesignDay,                              !- Heating Design Air Flow Method
  ,                                       !- Heating Design Air Flow Rate {m3/s}
  ,                                       !- Heating Maximum Air Flow per Zone Floor Area {m3/s-m2}
  ,                                       !- Heating Maximum Air Flow {m3/s}
  ,                                       !- Heating Maximum Air Flow Fraction
  ,                                       !- Design Zone Air Distribution Effectiveness in Cooling Mode
  ;                                       !- Design Zone Air Distribution Effectiveness in Heating Mode

OS:ZoneHVAC:EquipmentList,
  {22f1da32-059a-4dd7-8cd2-729d6d0b3eb8}, !- Handle
  {dd13fb66-d2da-48ba-b9bb-cef8bf945ca6}, !- Name
  {415b7187-e061-42d4-a30f-ce081c94bfab}; !- Thermal Zone

OS:Space,
  {c89cbbd2-071a-4637-b38f-54e5336829af}, !- Handle
  Floor 1 Office,                         !- Name
  {c69b4a48-13c1-412a-89f8-79acdafb47f0}, !- Space Type Name
  ,                                       !- Default Construction Set Name
  ,                                       !- Default Schedule Set Name
  0,                                      !- Direction of Relative North {deg}
  14.6304,                                !- X Origin {m}
  15.8496,                                !- Y Origin {m}
  0,                                      !- Z Origin {m}
  {2b6d1602-a08e-4c88-a58c-5a0a94a5b39e}, !- Building Story Name
  {415b7187-e061-42d4-a30f-ce081c94bfab}, !- Thermal Zone Name
  Yes,                                    !- Part of Total Floor Area
  ;                                       !- Design Specification Outdoor Air Object Name

OS:ThermalZone,
  {04fde85e-fe80-4bd0-ba89-3c19e43ca73e}, !- Handle
  Floor 1 Clean Work Thermal Zone,        !- Name
  1,                                      !- Multiplier
  ,                                       !- Ceiling Height {m}
  ,                                       !- Volume {m3}
  ,                                       !- Floor Area {m2}
  ,                                       !- Zone Inside Convection Algorithm
  ,                                       !- Zone Outside Convection Algorithm
  ,                                       !- Zone Conditioning Equipment List Name
  {19e03273-1e2b-4266-bda6-4fb3c25731c2}, !- Zone Air Inlet Port List
  {61936f9d-b62a-4555-a8fc-76e741d3ca5f}, !- Zone Air Exhaust Port List
  {90d77d7f-591b-444c-8bcc-a2725b098ba8}, !- Zone Air Node Name
  ,                                       !- Zone Return Air Node Name
  ,                                       !- Primary Daylighting Control Name
  ,                                       !- Fraction of Zone Controlled by Primary Daylighting Control
  ,                                       !- Secondary Daylighting Control Name
  ,                                       !- Fraction of Zone Controlled by Secondary Daylighting Control
  ,                                       !- Illuminance Map Name
  ,                                       !- Group Rendering Name
  {3a2f89e8-d23f-4760-81d5-8f4ed3f30675}, !- Thermostat Name
  Yes;                                    !- Use Ideal Air Loads

OS:Node,
  {7b786755-570a-49ae-98f8-89155bc45aeb}, !- Handle
  {90b7556f-a1ef-4660-b5e3-ce2f4b29d513}, !- Name
  {90d77d7f-591b-444c-8bcc-a2725b098ba8}, !- Inlet Port
  ;                                       !- Outlet Port

OS:Connection,
  {90d77d7f-591b-444c-8bcc-a2725b098ba8}, !- Handle
  {7adfb044-5924-428c-9ade-ce16b7dbcd42}, !- Name
  {04fde85e-fe80-4bd0-ba89-3c19e43ca73e}, !- Source Object
  11,                                     !- Outlet Port
  {7b786755-570a-49ae-98f8-89155bc45aeb}, !- Target Object
  2;                                      !- Inlet Port

OS:PortList,
  {19e03273-1e2b-4266-bda6-4fb3c25731c2}, !- Handle
  {9fcdede9-d23d-4712-977b-4c3e8b252a8e}, !- Name
  {04fde85e-fe80-4bd0-ba89-3c19e43ca73e}; !- HVAC Component

OS:PortList,
  {61936f9d-b62a-4555-a8fc-76e741d3ca5f}, !- Handle
  {c5b64f06-cb16-4b9f-a58d-7afe913293eb}, !- Name
  {04fde85e-fe80-4bd0-ba89-3c19e43ca73e}; !- HVAC Component

OS:Sizing:Zone,
  {2a1c06c2-0098-4c28-b313-b8c271eb1848}, !- Handle
  {04fde85e-fe80-4bd0-ba89-3c19e43ca73e}, !- Zone or ZoneList Name
  11.1,                                   !- Zone Cooling Design Supply Air Temperature {C}
  40,                                     !- Zone Heating Design Supply Air Temperature {C}
  0.0085,                                 !- Zone Cooling Design Supply Air Humidity Ratio {kg-H2O/kg-air}
  0.008,                                  !- Zone Heating Design Supply Air Humidity Ratio {kg-H2O/kg-air}
  ,                                       !- Zone Heating Sizing Factor
  ,                                       !- Zone Cooling Sizing Factor
  DesignDayWithLimit,                     !- Cooling Design Air Flow Method
  ,                                       !- Cooling Design Air Flow Rate {m3/s}
  ,                                       !- Cooling Minimum Air Flow per Zone Floor Area {m3/s-m2}
  0.051914,                               !- Cooling Minimum Air Flow {m3/s}
  ,                                       !- Cooling Minimum Air Flow Fraction
  DesignDay,                              !- Heating Design Air Flow Method
  ,                                       !- Heating Design Air Flow Rate {m3/s}
  ,                                       !- Heating Maximum Air Flow per Zone Floor Area {m3/s-m2}
  ,                                       !- Heating Maximum Air Flow {m3/s}
  ,                                       !- Heating Maximum Air Flow Fraction
  ,                                       !- Design Zone Air Distribution Effectiveness in Cooling Mode
  ;                                       !- Design Zone Air Distribution Effectiveness in Heating Mode

OS:ZoneHVAC:EquipmentList,
  {93210f1f-7089-45b1-9582-64e90b721a9a}, !- Handle
  {137cd3d6-0009-4b7e-91b4-a7c1fa731177}, !- Name
  {04fde85e-fe80-4bd0-ba89-3c19e43ca73e}; !- Thermal Zone

OS:Space,
  {363aad5c-401a-4a48-b76b-cce0f68bf31e}, !- Handle
  Floor 1 Clean Work,                     !- Name
  {c69b4a48-13c1-412a-89f8-79acdafb47f0}, !- Space Type Name
  ,                                       !- Default Construction Set Name
  ,                                       !- Default Schedule Set Name
  0,                                      !- Direction of Relative North {deg}
  42.0624,                                !- X Origin {m}
  9.7536,                                 !- Y Origin {m}
  0,                                      !- Z Origin {m}
  {2b6d1602-a08e-4c88-a58c-5a0a94a5b39e}, !- Building Story Name
  {04fde85e-fe80-4bd0-ba89-3c19e43ca73e}, !- Thermal Zone Name
  Yes,                                    !- Part of Total Floor Area
  ;                                       !- Design Specification Outdoor Air Object Name

OS:ThermalZone,
  {3bab9a09-e41d-4a30-a1b4-d8821bb00fbe}, !- Handle
  Floor 1 Operating Room 3 Thermal Zone,  !- Name
  1,                                      !- Multiplier
  ,                                       !- Ceiling Height {m}
  ,                                       !- Volume {m3}
  ,                                       !- Floor Area {m2}
  ,                                       !- Zone Inside Convection Algorithm
  ,                                       !- Zone Outside Convection Algorithm
  ,                                       !- Zone Conditioning Equipment List Name
  {9bdab9e9-71c4-4505-876d-ffbddbd22483}, !- Zone Air Inlet Port List
  {a99f3d5c-02d9-4fab-82ea-9b5e01921cad}, !- Zone Air Exhaust Port List
  {f8a1c8b0-440e-4450-9e72-7fc0e9a6054b}, !- Zone Air Node Name
  ,                                       !- Zone Return Air Node Name
  ,                                       !- Primary Daylighting Control Name
  ,                                       !- Fraction of Zone Controlled by Primary Daylighting Control
  ,                                       !- Secondary Daylighting Control Name
  ,                                       !- Fraction of Zone Controlled by Secondary Daylighting Control
  ,                                       !- Illuminance Map Name
  ,                                       !- Group Rendering Name
  {3a2f89e8-d23f-4760-81d5-8f4ed3f30675}, !- Thermostat Name
  Yes;                                    !- Use Ideal Air Loads

OS:Node,
  {075791fa-a6b5-4c98-ab9b-c257d41400b0}, !- Handle
  {42e3a27c-3eba-4a11-a69c-a58a74922b06}, !- Name
  {f8a1c8b0-440e-4450-9e72-7fc0e9a6054b}, !- Inlet Port
  ;                                       !- Outlet Port

OS:Connection,
  {f8a1c8b0-440e-4450-9e72-7fc0e9a6054b}, !- Handle
  {9975c313-351c-434c-b469-880ce62b668c}, !- Name
  {3bab9a09-e41d-4a30-a1b4-d8821bb00fbe}, !- Source Object
  11,                                     !- Outlet Port
  {075791fa-a6b5-4c98-ab9b-c257d41400b0}, !- Target Object
  2;                                      !- Inlet Port

OS:PortList,
  {9bdab9e9-71c4-4505-876d-ffbddbd22483}, !- Handle
  {424abe4c-cca0-4ae4-93aa-c08db0749873}, !- Name
  {3bab9a09-e41d-4a30-a1b4-d8821bb00fbe}; !- HVAC Component

OS:PortList,
  {a99f3d5c-02d9-4fab-82ea-9b5e01921cad}, !- Handle
  {7601e0b3-d13d-48c9-9206-4fee543cc46b}, !- Name
  {3bab9a09-e41d-4a30-a1b4-d8821bb00fbe}; !- HVAC Component

OS:Sizing:Zone,
  {b2db088d-5fb0-4889-8ef2-fa29e81615e1}, !- Handle
  {3bab9a09-e41d-4a30-a1b4-d8821bb00fbe}, !- Zone or ZoneList Name
  11.1,                                   !- Zone Cooling Design Supply Air Temperature {C}
  40,                                     !- Zone Heating Design Supply Air Temperature {C}
  0.0085,                                 !- Zone Cooling Design Supply Air Humidity Ratio {kg-H2O/kg-air}
  0.008,                                  !- Zone Heating Design Supply Air Humidity Ratio {kg-H2O/kg-air}
  ,                                       !- Zone Heating Sizing Factor
  ,                                       !- Zone Cooling Sizing Factor
  DesignDayWithLimit,                     !- Cooling Design Air Flow Method
  ,                                       !- Cooling Design Air Flow Rate {m3/s}
  ,                                       !- Cooling Minimum Air Flow per Zone Floor Area {m3/s-m2}
  0.561617,                               !- Cooling Minimum Air Flow {m3/s}
  ,                                       !- Cooling Minimum Air Flow Fraction
  DesignDay,                              !- Heating Design Air Flow Method
  ,                                       !- Heating Design Air Flow Rate {m3/s}
  ,                                       !- Heating Maximum Air Flow per Zone Floor Area {m3/s-m2}
  ,                                       !- Heating Maximum Air Flow {m3/s}
  ,                                       !- Heating Maximum Air Flow Fraction
  ,                                       !- Design Zone Air Distribution Effectiveness in Cooling Mode
  ;                                       !- Design Zone Air Distribution Effectiveness in Heating Mode

OS:ZoneHVAC:EquipmentList,
  {a14b3c8c-30b0-4786-88f2-df13290a1ec4}, !- Handle
  {c05cc379-f453-4bfe-8a8a-bd6a0cb13ea5}, !- Name
  {3bab9a09-e41d-4a30-a1b4-d8821bb00fbe}; !- Thermal Zone

OS:Space,
  {feb27d4b-327a-4d7c-8f53-14d8d98c644f}, !- Handle
  Floor 1 Operating Room 3,               !- Name
  {c69b4a48-13c1-412a-89f8-79acdafb47f0}, !- Space Type Name
  ,                                       !- Default Construction Set Name
  ,                                       !- Default Schedule Set Name
  0,                                      !- Direction of Relative North {deg}
  33.528,                                 !- X Origin {m}
  19.2024,                                !- Y Origin {m}
  0,                                      !- Z Origin {m}
  {2b6d1602-a08e-4c88-a58c-5a0a94a5b39e}, !- Building Story Name
  {3bab9a09-e41d-4a30-a1b4-d8821bb00fbe}, !- Thermal Zone Name
  Yes,                                    !- Part of Total Floor Area
  ;                                       !- Design Specification Outdoor Air Object Name

OS:Surface,
  {ec1a8030-c947-4464-93f7-f22672cc8833}, !- Handle
  256F02,                                 !- Name
  Wall,                                   !- Surface Type
  ,                                       !- Construction Name
  {70ac1ae8-1b3c-4b53-9509-01c2379748f6}, !- Space Name
  Outdoors,                               !- Outside Boundary Condition
  ,                                       !- Outside Boundary Condition Object
  SunExposed,                             !- Sun Exposure
  WindExposed,                            !- Wind Exposure
  ,                                       !- View Factor to Ground
  ,                                       !- Number of Vertices
  0, -1.524, 3.048,                       !- X,Y,Z Vertex 1 {m}
  0, -1.524, 0,                           !- X,Y,Z Vertex 2 {m}
  0, 0, 0,                                !- X,Y,Z Vertex 3 {m}
  0, 0, 3.048;                            !- X,Y,Z Vertex 4 {m}

OS:ThermalZone,
  {178fd27c-65b9-4c4c-85ea-c1853ebc98e8}, !- Handle
  Floor 1 Dressing Room Thermal Zone,     !- Name
  1,                                      !- Multiplier
  ,                                       !- Ceiling Height {m}
  ,                                       !- Volume {m3}
  ,                                       !- Floor Area {m2}
  ,                                       !- Zone Inside Convection Algorithm
  ,                                       !- Zone Outside Convection Algorithm
  ,                                       !- Zone Conditioning Equipment List Name
  {0b21a430-652f-4cea-b38b-5f55abc58136}, !- Zone Air Inlet Port List
  {25fa99c9-423a-4e60-8de6-be334bfee18a}, !- Zone Air Exhaust Port List
  {965a9fc3-ae92-4a33-8c9a-ea424139f2f0}, !- Zone Air Node Name
  ,                                       !- Zone Return Air Node Name
  ,                                       !- Primary Daylighting Control Name
  ,                                       !- Fraction of Zone Controlled by Primary Daylighting Control
  ,                                       !- Secondary Daylighting Control Name
  ,                                       !- Fraction of Zone Controlled by Secondary Daylighting Control
  ,                                       !- Illuminance Map Name
  ,                                       !- Group Rendering Name
  {3a2f89e8-d23f-4760-81d5-8f4ed3f30675}, !- Thermostat Name
  Yes;                                    !- Use Ideal Air Loads

OS:Node,
  {5a1f04d3-e25c-4ba6-88f9-de3a65231c07}, !- Handle
  {3530ff9f-d0e7-412f-a06f-2c91a0a44de6}, !- Name
  {965a9fc3-ae92-4a33-8c9a-ea424139f2f0}, !- Inlet Port
  ;                                       !- Outlet Port

OS:Connection,
  {965a9fc3-ae92-4a33-8c9a-ea424139f2f0}, !- Handle
  {55122c9c-aacd-416f-bf23-32b71c7d5c11}, !- Name
  {178fd27c-65b9-4c4c-85ea-c1853ebc98e8}, !- Source Object
  11,                                     !- Outlet Port
  {5a1f04d3-e25c-4ba6-88f9-de3a65231c07}, !- Target Object
  2;                                      !- Inlet Port

OS:PortList,
  {0b21a430-652f-4cea-b38b-5f55abc58136}, !- Handle
  {de02b843-ac65-4daa-b8cd-646a7d775ef3}, !- Name
  {178fd27c-65b9-4c4c-85ea-c1853ebc98e8}; !- HVAC Component

OS:PortList,
  {25fa99c9-423a-4e60-8de6-be334bfee18a}, !- Handle
  {d29c85e5-585b-4dd7-be18-a7488d652142}, !- Name
  {178fd27c-65b9-4c4c-85ea-c1853ebc98e8}; !- HVAC Component

OS:Sizing:Zone,
  {83fe6bae-9dae-46ee-abf5-cfa264efaf19}, !- Handle
  {178fd27c-65b9-4c4c-85ea-c1853ebc98e8}, !- Zone or ZoneList Name
  11.1,                                   !- Zone Cooling Design Supply Air Temperature {C}
  40,                                     !- Zone Heating Design Supply Air Temperature {C}
  0.0085,                                 !- Zone Cooling Design Supply Air Humidity Ratio {kg-H2O/kg-air}
  0.008,                                  !- Zone Heating Design Supply Air Humidity Ratio {kg-H2O/kg-air}
  ,                                       !- Zone Heating Sizing Factor
  ,                                       !- Zone Cooling Sizing Factor
  DesignDayWithLimit,                     !- Cooling Design Air Flow Method
  ,                                       !- Cooling Design Air Flow Rate {m3/s}
  ,                                       !- Cooling Minimum Air Flow per Zone Floor Area {m3/s-m2}
  ,                                       !- Cooling Minimum Air Flow {m3/s}
  ,                                       !- Cooling Minimum Air Flow Fraction
  DesignDay,                              !- Heating Design Air Flow Method
  ,                                       !- Heating Design Air Flow Rate {m3/s}
  ,                                       !- Heating Maximum Air Flow per Zone Floor Area {m3/s-m2}
  ,                                       !- Heating Maximum Air Flow {m3/s}
  ,                                       !- Heating Maximum Air Flow Fraction
  ,                                       !- Design Zone Air Distribution Effectiveness in Cooling Mode
  ;                                       !- Design Zone Air Distribution Effectiveness in Heating Mode

OS:ZoneHVAC:EquipmentList,
  {ce4039a1-191f-4b00-b5ea-150173eb0cb0}, !- Handle
  {509af40b-e5c1-4666-bc6c-3a50960b7562}, !- Name
  {178fd27c-65b9-4c4c-85ea-c1853ebc98e8}; !- Thermal Zone

OS:Space,
  {70ac1ae8-1b3c-4b53-9509-01c2379748f6}, !- Handle
  Floor 1 Dressing Room,                  !- Name
  {c69b4a48-13c1-412a-89f8-79acdafb47f0}, !- Space Type Name
  ,                                       !- Default Construction Set Name
  ,                                       !- Default Schedule Set Name
  0,                                      !- Direction of Relative North {deg}
  15.5448,                                !- X Origin {m}
  28.3464,                                !- Y Origin {m}
  0,                                      !- Z Origin {m}
  {2b6d1602-a08e-4c88-a58c-5a0a94a5b39e}, !- Building Story Name
  {178fd27c-65b9-4c4c-85ea-c1853ebc98e8}, !- Thermal Zone Name
  Yes,                                    !- Part of Total Floor Area
  ;                                       !- Design Specification Outdoor Air Object Name

OS:ThermalZone,
  {bcf5cd32-ee09-4e15-8d37-e3e7b296ea70}, !- Handle
  Floor 1 Sterile Hall Thermal Zone,      !- Name
  1,                                      !- Multiplier
  ,                                       !- Ceiling Height {m}
  ,                                       !- Volume {m3}
  ,                                       !- Floor Area {m2}
  ,                                       !- Zone Inside Convection Algorithm
  ,                                       !- Zone Outside Convection Algorithm
  ,                                       !- Zone Conditioning Equipment List Name
  {05218caa-e33a-48ea-bc43-eb373a20f8c5}, !- Zone Air Inlet Port List
  {bc2051df-239f-448c-a98d-5d2209189d1d}, !- Zone Air Exhaust Port List
  {2c2f5a79-17a2-4be4-bb97-37e5180f4d0a}, !- Zone Air Node Name
  ,                                       !- Zone Return Air Node Name
  ,                                       !- Primary Daylighting Control Name
  ,                                       !- Fraction of Zone Controlled by Primary Daylighting Control
  ,                                       !- Secondary Daylighting Control Name
  ,                                       !- Fraction of Zone Controlled by Secondary Daylighting Control
  ,                                       !- Illuminance Map Name
  ,                                       !- Group Rendering Name
  {3a2f89e8-d23f-4760-81d5-8f4ed3f30675}, !- Thermostat Name
  Yes;                                    !- Use Ideal Air Loads

OS:Node,
  {13a037d9-807a-49f3-89f9-5a4420386a2f}, !- Handle
  {ac1cc606-615f-4bec-aec5-c7b200bf2dda}, !- Name
  {2c2f5a79-17a2-4be4-bb97-37e5180f4d0a}, !- Inlet Port
  ;                                       !- Outlet Port
