
OS:Version,
  {9e237d2a-418a-44b2-b996-3c15732988c3}, !- Handle
  1.6.0;                                  !- Version Identifier

OS:Site,
  {4034e0b2-3ec6-4310-82f8-75f78b54c9b7}, !- Handle
  Calgary Int'l_AB_CAN,                   !- Name
  51.12,                                  !- Latitude {deg}
  -114.02,                                !- Longitude {deg}
  -7,                                     !- Time Zone {hr}
  1084,                                   !- Elevation {m}
  City;                                   !- Terrain

OS:SimulationControl,
  {16dc4039-b98c-4a19-9ccf-41e059f54d89}, !- Handle
  Yes,                                    !- Do Zone Sizing Calculation
  Yes,                                    !- Do System Sizing Calculation
  Yes,                                    !- Do Plant Sizing Calculation
  No,                                     !- Run Simulation for Sizing Periods
  Yes,                                    !- Run Simulation for Weather File Run Periods
  0.04,                                   !- Loads Convergence Tolerance Value
  0.2,                                    !- Temperature Convergence Tolerance Value {deltaC}
  FullInteriorAndExterior,                !- Solar Distribution
  25,                                     !- Maximum Number of Warmup Days
  6;                                      !- Minimum Number of Warmup Days

OS:ThermalZone,
  {5a121d2d-1081-4c5c-ab01-9e68aad0585e}, !- Handle
  Mult_Class_2_Pod_3_ZN_1_FLR_1 Thermal Zone, !- Name
  1,                                      !- Multiplier
  ,                                       !- Ceiling Height {m}
  ,                                       !- Volume {m3}
  ,                                       !- Floor Area {m2}
  ,                                       !- Zone Inside Convection Algorithm
  ,                                       !- Zone Outside Convection Algorithm
  ,                                       !- Zone Conditioning Equipment List Name
  {f1b2bc4d-24de-477c-ae74-e0af1f9d93a2}, !- Zone Air Inlet Port List
  {2ab62cd2-c72c-434d-b734-d50f5363f757}, !- Zone Air Exhaust Port List
  {624551b5-ea03-4448-ac52-01cfcaeb8188}, !- Zone Air Node Name
  ,                                       !- Zone Return Air Node Name
  ,                                       !- Primary Daylighting Control Name
  ,                                       !- Fraction of Zone Controlled by Primary Daylighting Control
  ,                                       !- Secondary Daylighting Control Name
  ,                                       !- Fraction of Zone Controlled by Secondary Daylighting Control
  ,                                       !- Illuminance Map Name
  ,                                       !- Group Rendering Name
  {a11a61f5-1dc8-464a-8dfe-b494300ffc28}, !- Thermostat Name
  Yes;                                    !- Use Ideal Air Loads

OS:Node,
  {56ac3f04-cc4e-44b0-b23c-49f01fcc2e5c}, !- Handle
  {a6477eda-637e-486d-a96e-14b2850b9c77}, !- Name
  {624551b5-ea03-4448-ac52-01cfcaeb8188}, !- Inlet Port
  ;                                       !- Outlet Port

OS:Connection,
  {624551b5-ea03-4448-ac52-01cfcaeb8188}, !- Handle
  {842c3b27-fac2-4224-bb67-c50e54829cc6}, !- Name
  {5a121d2d-1081-4c5c-ab01-9e68aad0585e}, !- Source Object
  11,                                     !- Outlet Port
  {56ac3f04-cc4e-44b0-b23c-49f01fcc2e5c}, !- Target Object
  2;                                      !- Inlet Port

OS:PortList,
  {f1b2bc4d-24de-477c-ae74-e0af1f9d93a2}, !- Handle
  {b0e7c861-2adc-4f53-93cc-21c515700330}, !- Name
  {5a121d2d-1081-4c5c-ab01-9e68aad0585e}; !- HVAC Component

OS:PortList,
  {2ab62cd2-c72c-434d-b734-d50f5363f757}, !- Handle
  {e6ac0891-1160-4ec7-8c43-14dac06068bb}, !- Name
  {5a121d2d-1081-4c5c-ab01-9e68aad0585e}; !- HVAC Component

OS:Sizing:Zone,
  {3fa2486c-b4c0-4f5e-a5bf-1b4d02ff5bc3}, !- Handle
  {5a121d2d-1081-4c5c-ab01-9e68aad0585e}, !- Zone or ZoneList Name
  12.8,                                   !- Zone Cooling Design Supply Air Temperature {C}
  50,                                     !- Zone Heating Design Supply Air Temperature {C}
  0.0085,                                 !- Zone Cooling Design Supply Air Humidity Ratio {kg-H2O/kg-air}
  0.008,                                  !- Zone Heating Design Supply Air Humidity Ratio {kg-H2O/kg-air}
  ,                                       !- Zone Heating Sizing Factor
  ,                                       !- Zone Cooling Sizing Factor
  DesignDay,                              !- Cooling Design Air Flow Method
  ,                                       !- Cooling Design Air Flow Rate {m3/s}
  ,                                       !- Cooling Minimum Air Flow per Zone Floor Area {m3/s-m2}
  ,                                       !- Cooling Minimum Air Flow {m3/s}
  ,                                       !- Cooling Minimum Air Flow Fraction
  DesignDay,                              !- Heating Design Air Flow Method
  ,                                       !- Heating Design Air Flow Rate {m3/s}
  ,                                       !- Heating Maximum Air Flow per Zone Floor Area {m3/s-m2}
  ,                                       !- Heating Maximum Air Flow {m3/s}
  ,                                       !- Heating Maximum Air Flow Fraction
  ,                                       !- Design Zone Air Distribution Effectiveness in Cooling Mode
  ;                                       !- Design Zone Air Distribution Effectiveness in Heating Mode

OS:ZoneHVAC:EquipmentList,
  {93abb1ef-76a9-4c8f-b397-737871c61e90}, !- Handle
  {a44f0a27-0837-4970-9514-e74b23e912da}, !- Name
  {5a121d2d-1081-4c5c-ab01-9e68aad0585e}; !- Thermal Zone

OS:Space,
  {02f0163e-ff0e-4d6e-a06c-c8e57d762d94}, !- Handle
  Mult_Class_2_Pod_3_ZN_1_FLR_1,          !- Name
  {05072e8b-b839-4ba8-b68f-0296cf950538}, !- Space Type Name
  ,                                       !- Default Construction Set Name
  ,                                       !- Default Schedule Set Name
  0,                                      !- Direction of Relative North {deg}
  -53,                                    !- X Origin {m}
  73,                                     !- Y Origin {m}
  0,                                      !- Z Origin {m}
  {1653c7d6-9f03-49fc-b3c0-d3607a5cadce}, !- Building Story Name
  {5a121d2d-1081-4c5c-ab01-9e68aad0585e}, !- Thermal Zone Name
  Yes,                                    !- Part of Total Floor Area
  ;                                       !- Design Specification Outdoor Air Object Name

OS:Surface,
  {3a20a295-8e6f-4e1d-abe5-be7d4ecb82b3}, !- Handle
  Main_Corridor_ZN_1_FLR_1_Wall_8,        !- Name
  Wall,                                   !- Surface Type
  ,                                       !- Construction Name
  {b9239000-220a-443a-966f-b3346b2791bb}, !- Space Name
  Surface,                                !- Outside Boundary Condition
  {9dd002e4-9332-4707-9612-8eb27aced1ee}, !- Outside Boundary Condition Object
  NoSun,                                  !- Sun Exposure
  NoWind,                                 !- Wind Exposure
  ,                                       !- View Factor to Ground
  ,                                       !- Number of Vertices
  0, 12, 4,                               !- X,Y,Z Vertex 1 {m}
  0, 12, 0,                               !- X,Y,Z Vertex 2 {m}
  0, 3, 0,                                !- X,Y,Z Vertex 3 {m}
  0, 3, 4;                                !- X,Y,Z Vertex 4 {m}

OS:ThermalZone,
  {952505b6-9383-4120-924c-edd66685f934}, !- Handle
  Main_Corridor_ZN_1_FLR_1 Thermal Zone,  !- Name
  1,                                      !- Multiplier
  ,                                       !- Ceiling Height {m}
  ,                                       !- Volume {m3}
  ,                                       !- Floor Area {m2}
  ,                                       !- Zone Inside Convection Algorithm
  ,                                       !- Zone Outside Convection Algorithm
  ,                                       !- Zone Conditioning Equipment List Name
  {29ac24f1-e9e3-4d89-8c2d-c960825d5638}, !- Zone Air Inlet Port List
  {89d7757e-73f0-4961-bcee-48ae8264f8eb}, !- Zone Air Exhaust Port List
  {5001f564-4368-494b-a276-f2d1527320a7}, !- Zone Air Node Name
  ,                                       !- Zone Return Air Node Name
  ,                                       !- Primary Daylighting Control Name
  ,                                       !- Fraction of Zone Controlled by Primary Daylighting Control
  ,                                       !- Secondary Daylighting Control Name
  ,                                       !- Fraction of Zone Controlled by Secondary Daylighting Control
  ,                                       !- Illuminance Map Name
  ,                                       !- Group Rendering Name
  {a11a61f5-1dc8-464a-8dfe-b494300ffc28}, !- Thermostat Name
  Yes;                                    !- Use Ideal Air Loads

OS:Node,
  {5d34eef5-ade8-47be-bade-9c368e9e3625}, !- Handle
  {0864362c-6564-4b0e-a570-fe8a6d576030}, !- Name
  {5001f564-4368-494b-a276-f2d1527320a7}, !- Inlet Port
  ;                                       !- Outlet Port

OS:Connection,
  {5001f564-4368-494b-a276-f2d1527320a7}, !- Handle
  {7ebfb1fe-ddd5-40ab-98cb-64a8405a8e55}, !- Name
  {952505b6-9383-4120-924c-edd66685f934}, !- Source Object
  11,                                     !- Outlet Port
  {5d34eef5-ade8-47be-bade-9c368e9e3625}, !- Target Object
  2;                                      !- Inlet Port

OS:PortList,
  {29ac24f1-e9e3-4d89-8c2d-c960825d5638}, !- Handle
  {763d9173-9044-4a64-8f8b-939e9df53e22}, !- Name
  {952505b6-9383-4120-924c-edd66685f934}; !- HVAC Component

OS:PortList,
  {89d7757e-73f0-4961-bcee-48ae8264f8eb}, !- Handle
  {81605d6d-2908-405d-800a-de407b252510}, !- Name
  {952505b6-9383-4120-924c-edd66685f934}; !- HVAC Component

OS:Sizing:Zone,
  {cbe3e108-922e-49f1-b9e9-0c4743ad1242}, !- Handle
  {952505b6-9383-4120-924c-edd66685f934}, !- Zone or ZoneList Name
  12.8,                                   !- Zone Cooling Design Supply Air Temperature {C}
  50,                                     !- Zone Heating Design Supply Air Temperature {C}
  0.0085,                                 !- Zone Cooling Design Supply Air Humidity Ratio {kg-H2O/kg-air}
  0.008,                                  !- Zone Heating Design Supply Air Humidity Ratio {kg-H2O/kg-air}
  ,                                       !- Zone Heating Sizing Factor
  ,                                       !- Zone Cooling Sizing Factor
  DesignDay,                              !- Cooling Design Air Flow Method
  ,                                       !- Cooling Design Air Flow Rate {m3/s}
  ,                                       !- Cooling Minimum Air Flow per Zone Floor Area {m3/s-m2}
  ,                                       !- Cooling Minimum Air Flow {m3/s}
  ,                                       !- Cooling Minimum Air Flow Fraction
  DesignDay,                              !- Heating Design Air Flow Method
  ,                                       !- Heating Design Air Flow Rate {m3/s}
  ,                                       !- Heating Maximum Air Flow per Zone Floor Area {m3/s-m2}
  ,                                       !- Heating Maximum Air Flow {m3/s}
  ,                                       !- Heating Maximum Air Flow Fraction
  ,                                       !- Design Zone Air Distribution Effectiveness in Cooling Mode
  ;                                       !- Design Zone Air Distribution Effectiveness in Heating Mode

OS:ZoneHVAC:EquipmentList,
  {649893ad-9dd0-4cc1-b409-03a5e13e726d}, !- Handle
  {1c715f38-3bfe-405a-9e90-2b359661f28c}, !- Name
  {952505b6-9383-4120-924c-edd66685f934}; !- Thermal Zone

OS:Space,
  {b9239000-220a-443a-966f-b3346b2791bb}, !- Handle
  Main_Corridor_ZN_1_FLR_1,               !- Name
  {f39a5836-a202-43e9-bcf3-aa95dae88152}, !- Space Type Name
  ,                                       !- Default Construction Set Name
  ,                                       !- Default Schedule Set Name
  0,                                      !- Direction of Relative North {deg}
  0,                                      !- X Origin {m}
  9,                                      !- Y Origin {m}
  0,                                      !- Z Origin {m}
  {1653c7d6-9f03-49fc-b3c0-d3607a5cadce}, !- Building Story Name
  {952505b6-9383-4120-924c-edd66685f934}, !- Thermal Zone Name
  Yes,                                    !- Part of Total Floor Area
  ;                                       !- Design Specification Outdoor Air Object Name

OS:Surface,
  {d072411a-c68a-45ec-9e01-1b743f540eaf}, !- Handle
  Corridor_Pod_3_ZN_1_FLR_1_Wall_3,       !- Name
  Wall,                                   !- Surface Type
  ,                                       !- Construction Name
  {e662a04d-82b6-490d-a598-af03359746db}, !- Space Name
  Surface,                                !- Outside Boundary Condition
  {a6d520a9-e295-4d21-973a-c0ffab76f310}, !- Outside Boundary Condition Object
  NoSun,                                  !- Sun Exposure
  NoWind,                                 !- Wind Exposure
  ,                                       !- View Factor to Ground
  ,                                       !- Number of Vertices
  64, 0, 4,                               !- X,Y,Z Vertex 1 {m}
  64, 0, 0,                               !- X,Y,Z Vertex 2 {m}
  64, 3, 0,                               !- X,Y,Z Vertex 3 {m}
  64, 3, 4;                               !- X,Y,Z Vertex 4 {m}

OS:ThermalZone,
  {5b29f04c-7023-4b2c-bf6f-3ecab3ad7529}, !- Handle
  Corridor_Pod_3_ZN_1_FLR_1 Thermal Zone, !- Name
  1,                                      !- Multiplier
  ,                                       !- Ceiling Height {m}
  ,                                       !- Volume {m3}
  ,                                       !- Floor Area {m2}
  ,                                       !- Zone Inside Convection Algorithm
  ,                                       !- Zone Outside Convection Algorithm
  ,                                       !- Zone Conditioning Equipment List Name
  {1a2c5066-d278-4d57-942a-976092afce60}, !- Zone Air Inlet Port List
  {a1f5a75e-b8ed-4822-a8c3-7bd491f34203}, !- Zone Air Exhaust Port List
  {7b71ca9d-929e-427c-969f-c05a4d83b136}, !- Zone Air Node Name
  ,                                       !- Zone Return Air Node Name
  ,                                       !- Primary Daylighting Control Name
  ,                                       !- Fraction of Zone Controlled by Primary Daylighting Control
  ,                                       !- Secondary Daylighting Control Name
  ,                                       !- Fraction of Zone Controlled by Secondary Daylighting Control
  ,                                       !- Illuminance Map Name
  ,                                       !- Group Rendering Name
  {a11a61f5-1dc8-464a-8dfe-b494300ffc28}, !- Thermostat Name
  Yes;                                    !- Use Ideal Air Loads

OS:Node,
  {cf56d975-ed41-4223-a5e5-6c3816bcac28}, !- Handle
  {56ebacbb-cd34-407b-afff-b75b4909f67d}, !- Name
  {7b71ca9d-929e-427c-969f-c05a4d83b136}, !- Inlet Port
  ;                                       !- Outlet Port

OS:Connection,
  {7b71ca9d-929e-427c-969f-c05a4d83b136}, !- Handle
  {9fdcf6f2-0e0f-4e56-b887-9e7f8433af2e}, !- Name
  {5b29f04c-7023-4b2c-bf6f-3ecab3ad7529}, !- Source Object
  11,                                     !- Outlet Port
  {cf56d975-ed41-4223-a5e5-6c3816bcac28}, !- Target Object
  2;                                      !- Inlet Port

OS:PortList,
  {1a2c5066-d278-4d57-942a-976092afce60}, !- Handle
  {27431a8a-bcac-4bbc-a0ee-2cbd6c6ede49}, !- Name
  {5b29f04c-7023-4b2c-bf6f-3ecab3ad7529}; !- HVAC Component

OS:PortList,
  {a1f5a75e-b8ed-4822-a8c3-7bd491f34203}, !- Handle
  {cd3d427c-6510-407e-a28f-8d1f5b226dd2}, !- Name
  {5b29f04c-7023-4b2c-bf6f-3ecab3ad7529}; !- HVAC Component

OS:Sizing:Zone,
  {62155108-5e45-46da-926f-4d36d0f02b7f}, !- Handle
  {5b29f04c-7023-4b2c-bf6f-3ecab3ad7529}, !- Zone or ZoneList Name
  12.8,                                   !- Zone Cooling Design Supply Air Temperature {C}
  50,                                     !- Zone Heating Design Supply Air Temperature {C}
  0.0085,                                 !- Zone Cooling Design Supply Air Humidity Ratio {kg-H2O/kg-air}
  0.008,                                  !- Zone Heating Design Supply Air Humidity Ratio {kg-H2O/kg-air}
  ,                                       !- Zone Heating Sizing Factor
  ,                                       !- Zone Cooling Sizing Factor
  DesignDay,                              !- Cooling Design Air Flow Method
  ,                                       !- Cooling Design Air Flow Rate {m3/s}
  ,                                       !- Cooling Minimum Air Flow per Zone Floor Area {m3/s-m2}
  ,                                       !- Cooling Minimum Air Flow {m3/s}
  ,                                       !- Cooling Minimum Air Flow Fraction
  DesignDay,                              !- Heating Design Air Flow Method
  ,                                       !- Heating Design Air Flow Rate {m3/s}
  ,                                       !- Heating Maximum Air Flow per Zone Floor Area {m3/s-m2}
  ,                                       !- Heating Maximum Air Flow {m3/s}
  ,                                       !- Heating Maximum Air Flow Fraction
  ,                                       !- Design Zone Air Distribution Effectiveness in Cooling Mode
  ;                                       !- Design Zone Air Distribution Effectiveness in Heating Mode

OS:ZoneHVAC:EquipmentList,
  {fca87cc8-14cc-4079-b331-e53a94c80210}, !- Handle
  {2e018143-5cd0-48f6-a9c5-6e8fb436c33a}, !- Name
  {5b29f04c-7023-4b2c-bf6f-3ecab3ad7529}; !- Thermal Zone

OS:Space,
  {e662a04d-82b6-490d-a598-af03359746db}, !- Handle
  Corridor_Pod_3_ZN_1_FLR_1,              !- Name
  {f39a5836-a202-43e9-bcf3-aa95dae88152}, !- Space Type Name
  ,                                       !- Default Construction Set Name
  ,                                       !- Default Schedule Set Name
  0,                                      !- Direction of Relative North {deg}
  -64,                                    !- X Origin {m}
  70,                                     !- Y Origin {m}
  0,                                      !- Z Origin {m}
  {1653c7d6-9f03-49fc-b3c0-d3607a5cadce}, !- Building Story Name
  {5b29f04c-7023-4b2c-bf6f-3ecab3ad7529}, !- Thermal Zone Name
  Yes,                                    !- Part of Total Floor Area
  ;                                       !- Design Specification Outdoor Air Object Name

OS:ThermalZone,
  {d7748307-b1e7-4f17-bb6d-1d894a645d2d}, !- Handle
  Lobby_ZN_1_FLR_1 Thermal Zone,          !- Name
  1,                                      !- Multiplier
  ,                                       !- Ceiling Height {m}
  ,                                       !- Volume {m3}
  ,                                       !- Floor Area {m2}
  ,                                       !- Zone Inside Convection Algorithm
  ,                                       !- Zone Outside Convection Algorithm
  ,                                       !- Zone Conditioning Equipment List Name
  {c0dd57af-cffd-4a3b-ab3c-d3836ebc2458}, !- Zone Air Inlet Port List
  {a82abbaf-db95-435c-8220-0243c10cc73b}, !- Zone Air Exhaust Port List
  {e465d045-6ac2-48fd-96a1-a59c95ef0392}, !- Zone Air Node Name
  ,                                       !- Zone Return Air Node Name
  ,                                       !- Primary Daylighting Control Name
  ,                                       !- Fraction of Zone Controlled by Primary Daylighting Control
  ,                                       !- Secondary Daylighting Control Name
  ,                                       !- Fraction of Zone Controlled by Secondary Daylighting Control
  ,                                       !- Illuminance Map Name
  ,                                       !- Group Rendering Name
  {b93413a9-ad01-48a5-b5d1-3025fd166158}, !- Thermostat Name
  Yes;                                    !- Use Ideal Air Loads

OS:Node,
  {2a027ace-0647-4350-a5ab-3411f60fca00}, !- Handle
  {1d90ab1b-2190-48e2-9014-ac8e9b3d8246}, !- Name
  {e465d045-6ac2-48fd-96a1-a59c95ef0392}, !- Inlet Port
  ;                                       !- Outlet Port

OS:Connection,
  {e465d045-6ac2-48fd-96a1-a59c95ef0392}, !- Handle
  {b0d56703-a1f5-4a2e-b724-23af20651976}, !- Name
  {d7748307-b1e7-4f17-bb6d-1d894a645d2d}, !- Source Object
  11,                                     !- Outlet Port
  {2a027ace-0647-4350-a5ab-3411f60fca00}, !- Target Object
  2;                                      !- Inlet Port

OS:PortList,
  {c0dd57af-cffd-4a3b-ab3c-d3836ebc2458}, !- Handle
  {fcadcb88-f27d-47fd-99c0-2d64efbb1e85}, !- Name
  {d7748307-b1e7-4f17-bb6d-1d894a645d2d}; !- HVAC Component

OS:PortList,
  {a82abbaf-db95-435c-8220-0243c10cc73b}, !- Handle
  {c9ca256f-250a-4bb4-a504-6b290b7578ca}, !- Name
  {d7748307-b1e7-4f17-bb6d-1d894a645d2d}; !- HVAC Component

OS:Sizing:Zone,
  {3fa349c6-cc2b-4154-8e4f-d2fd604bb180}, !- Handle
  {d7748307-b1e7-4f17-bb6d-1d894a645d2d}, !- Zone or ZoneList Name
  12.8,                                   !- Zone Cooling Design Supply Air Temperature {C}
  50,                                     !- Zone Heating Design Supply Air Temperature {C}
  0.0085,                                 !- Zone Cooling Design Supply Air Humidity Ratio {kg-H2O/kg-air}
  0.008,                                  !- Zone Heating Design Supply Air Humidity Ratio {kg-H2O/kg-air}
  ,                                       !- Zone Heating Sizing Factor
  ,                                       !- Zone Cooling Sizing Factor
  DesignDay,                              !- Cooling Design Air Flow Method
  ,                                       !- Cooling Design Air Flow Rate {m3/s}
  ,                                       !- Cooling Minimum Air Flow per Zone Floor Area {m3/s-m2}
  ,                                       !- Cooling Minimum Air Flow {m3/s}
  ,                                       !- Cooling Minimum Air Flow Fraction
  DesignDay,                              !- Heating Design Air Flow Method
  ,                                       !- Heating Design Air Flow Rate {m3/s}
  ,                                       !- Heating Maximum Air Flow per Zone Floor Area {m3/s-m2}
  ,                                       !- Heating Maximum Air Flow {m3/s}
  ,                                       !- Heating Maximum Air Flow Fraction
  ,                                       !- Design Zone Air Distribution Effectiveness in Cooling Mode
  ;                                       !- Design Zone Air Distribution Effectiveness in Heating Mode

OS:ZoneHVAC:EquipmentList,
  {a6707dce-2e96-41eb-9b84-cb9de9b1f3b4}, !- Handle
  {0fa6ca23-d596-4891-8d48-36be7fcdc420}, !- Name
  {d7748307-b1e7-4f17-bb6d-1d894a645d2d}; !- Thermal Zone

OS:Space,
  {a03cf9bd-d579-4e9a-94aa-2c642d66e646}, !- Handle
  Lobby_ZN_1_FLR_1,                       !- Name
  {9f5c91c6-a0c2-4ab4-9f49-f95946fc4c3a}, !- Space Type Name
  ,                                       !- Default Construction Set Name
  ,                                       !- Default Schedule Set Name
  0,                                      !- Direction of Relative North {deg}
  0,                                      !- X Origin {m}
  0,                                      !- Y Origin {m}
  0,                                      !- Z Origin {m}
  {1653c7d6-9f03-49fc-b3c0-d3607a5cadce}, !- Building Story Name
  {d7748307-b1e7-4f17-bb6d-1d894a645d2d}, !- Thermal Zone Name
  Yes,                                    !- Part of Total Floor Area
  ;                                       !- Design Specification Outdoor Air Object Name

OS:Surface,
  {4dc1eeb7-28d2-4044-8a9d-4b4511a6da61}, !- Handle
  Corner_Class_2_Pod_2_ZN_1_FLR_1_Floor,  !- Name
  Floor,                                  !- Surface Type
  ,                                       !- Construction Name
  {44820472-9546-4d79-9707-f40a7b0e6827}, !- Space Name
  Ground,                                 !- Outside Boundary Condition
  ,                                       !- Outside Boundary Condition Object
  NoSun,                                  !- Sun Exposure
  NoWind,                                 !- Wind Exposure
  ,                                       !- View Factor to Ground
  ,                                       !- Number of Vertices
  11, 9, 0,                               !- X,Y,Z Vertex 1 {m}
  11, 0, 0,                               !- X,Y,Z Vertex 2 {m}
  0, 0, 0,                                !- X,Y,Z Vertex 3 {m}
  0, 9, 0;                                !- X,Y,Z Vertex 4 {m}

OS:ThermalZone,
  {20ec5cf2-fd1e-49ca-a2f4-6d66ec4750ce}, !- Handle
  Corner_Class_2_Pod_2_ZN_1_FLR_1 Thermal Zone, !- Name
  1,                                      !- Multiplier
  ,                                       !- Ceiling Height {m}
  ,                                       !- Volume {m3}
  ,                                       !- Floor Area {m2}
  ,                                       !- Zone Inside Convection Algorithm
  ,                                       !- Zone Outside Convection Algorithm
  ,                                       !- Zone Conditioning Equipment List Name
  {63366fa1-12ba-44c1-9c10-771f5a5a6f1f}, !- Zone Air Inlet Port List
  {b319251d-3183-4da5-9118-1b9268e5a139}, !- Zone Air Exhaust Port List
  {82ee7a18-21a3-48ec-93ea-857b850e07c2}, !- Zone Air Node Name
  ,                                       !- Zone Return Air Node Name
  ,                                       !- Primary Daylighting Control Name
  ,                                       !- Fraction of Zone Controlled by Primary Daylighting Control
  ,                                       !- Secondary Daylighting Control Name
  ,                                       !- Fraction of Zone Controlled by Secondary Daylighting Control
  ,                                       !- Illuminance Map Name
  ,                                       !- Group Rendering Name
  {a11a61f5-1dc8-464a-8dfe-b494300ffc28}, !- Thermostat Name
  Yes;                                    !- Use Ideal Air Loads

OS:Node,
  {7e26156f-9b69-43a2-9c90-f40cd5c6a3ca}, !- Handle
  {21f9d040-cfd6-47d6-b0e0-fb89c458180c}, !- Name
  {82ee7a18-21a3-48ec-93ea-857b850e07c2}, !- Inlet Port
  ;                                       !- Outlet Port

OS:Connection,
  {82ee7a18-21a3-48ec-93ea-857b850e07c2}, !- Handle
  {342c4fad-16c8-41a8-8342-1ba5969a3362}, !- Name
  {20ec5cf2-fd1e-49ca-a2f4-6d66ec4750ce}, !- Source Object
  11,                                     !- Outlet Port
  {7e26156f-9b69-43a2-9c90-f40cd5c6a3ca}, !- Target Object
  2;                                      !- Inlet Port

OS:PortList,
  {63366fa1-12ba-44c1-9c10-771f5a5a6f1f}, !- Handle
  {fc1ac7de-d4a1-4ce1-bce1-6186d0cddac2}, !- Name
  {20ec5cf2-fd1e-49ca-a2f4-6d66ec4750ce}; !- HVAC Component

OS:PortList,
  {b319251d-3183-4da5-9118-1b9268e5a139}, !- Handle
  {3af5b89d-c27d-41e2-97cc-6ba1586343a2}, !- Name
  {20ec5cf2-fd1e-49ca-a2f4-6d66ec4750ce}; !- HVAC Component

OS:Sizing:Zone,
  {ebe7af7e-7ca7-4e5e-9540-1703490fb53f}, !- Handle
  {20ec5cf2-fd1e-49ca-a2f4-6d66ec4750ce}, !- Zone or ZoneList Name
  12.8,                                   !- Zone Cooling Design Supply Air Temperature {C}
  50,                                     !- Zone Heating Design Supply Air Temperature {C}
  0.0085,                                 !- Zone Cooling Design Supply Air Humidity Ratio {kg-H2O/kg-air}
  0.008,                                  !- Zone Heating Design Supply Air Humidity Ratio {kg-H2O/kg-air}
  ,                                       !- Zone Heating Sizing Factor
  ,                                       !- Zone Cooling Sizing Factor
  DesignDay,                              !- Cooling Design Air Flow Method
  ,                                       !- Cooling Design Air Flow Rate {m3/s}
  ,                                       !- Cooling Minimum Air Flow per Zone Floor Area {m3/s-m2}
  ,                                       !- Cooling Minimum Air Flow {m3/s}
  ,                                       !- Cooling Minimum Air Flow Fraction
  DesignDay,                              !- Heating Design Air Flow Method
  ,                                       !- Heating Design Air Flow Rate {m3/s}
  ,                                       !- Heating Maximum Air Flow per Zone Floor Area {m3/s-m2}
  ,                                       !- Heating Maximum Air Flow {m3/s}
  ,                                       !- Heating Maximum Air Flow Fraction
  ,                                       !- Design Zone Air Distribution Effectiveness in Cooling Mode
  ;                                       !- Design Zone Air Distribution Effectiveness in Heating Mode

OS:ZoneHVAC:EquipmentList,
  {368697e9-1120-4fda-8312-59713f3c4109}, !- Handle
  {592d349c-987a-41ea-9c6e-92bc3723f26a}, !- Name
  {20ec5cf2-fd1e-49ca-a2f4-6d66ec4750ce}; !- Thermal Zone

OS:Space,
  {44820472-9546-4d79-9707-f40a7b0e6827}, !- Handle
  Corner_Class_2_Pod_2_ZN_1_FLR_1,        !- Name
  {05072e8b-b839-4ba8-b68f-0296cf950538}, !- Space Type Name
  ,                                       !- Default Construction Set Name
  ,                                       !- Default Schedule Set Name
  0,                                      !- Direction of Relative North {deg}
  -64,                                    !- X Origin {m}
  42,                                     !- Y Origin {m}
  0,                                      !- Z Origin {m}
  {1653c7d6-9f03-49fc-b3c0-d3607a5cadce}, !- Building Story Name