
OS:Version,
  {ad505a30-8bcc-4b9c-8ed7-3eb0cf98cbd0}, !- Handle
  1.6.0;                                  !- Version Identifier

OS:Site,
  {0df32d56-6bac-4b27-89f7-7916a398ab0d}, !- Handle
  Calgary Int'l_AB_CAN,                   !- Name
  51.12,                                  !- Latitude {deg}
  -114.02,                                !- Longitude {deg}
  -7,                                     !- Time Zone {hr}
  1084,                                   !- Elevation {m}
  City;                                   !- Terrain

OS:SimulationControl,
  {b1f98fe6-55ce-4555-9857-345376d2a6fa}, !- Handle
  Yes,                                    !- Do Zone Sizing Calculation
  Yes,                                    !- Do System Sizing Calculation
  Yes,                                    !- Do Plant Sizing Calculation
  No,                                     !- Run Simulation for Sizing Periods
  Yes,                                    !- Run Simulation for Weather File Run Periods
  0.04,                                   !- Loads Convergence Tolerance Value
  0.2,                                    !- Temperature Convergence Tolerance Value {deltaC}
  FullInteriorAndExterior,                !- Solar Distribution
  25,                                     !- Maximum Number of Warmup Days
  6;                                      !- Minimum Number of Warmup Days

OS:Curve:Quadratic,
  {931ad38c-bb66-4465-b360-3cf5923a9de8}, !- Handle
  Measured_CoolCStandard10Ton_CapFF,      !- Name
  0.7685,                                 !- Coefficient1 Constant
  0.2315,                                 !- Coefficient2 x
  0,                                      !- Coefficient3 x**2
  0.776,                                  !- Minimum Value of x {BasedOnField A2}
  1.197;                                  !- Maximum Value of x {BasedOnField A2}

OS:Surface,
  {be4c3802-5a87-495f-bbab-ec638714340b}, !- Handle
  Dining_Ceiling,                         !- Name
  RoofCeiling,                            !- Surface Type
  ,                                       !- Construction Name
  {0720640b-1651-4b5b-941a-5335f1aa6016}, !- Space Name
  Surface,                                !- Outside Boundary Condition
  {ea4b565a-b3ea-4580-8ab6-27e7a36da952}, !- Outside Boundary Condition Object
  NoSun,                                  !- Sun Exposure
  NoWind,                                 !- Wind Exposure
  ,                                       !- View Factor to Ground
  ,                                       !- Number of Vertices
  15.2428, 0, 3.0488,                     !- X,Y,Z Vertex 1 {m}
  15.2428, 7.6214, 3.0488,                !- X,Y,Z Vertex 2 {m}
  0, 7.6214, 3.0488,                      !- X,Y,Z Vertex 3 {m}
  0, 0, 3.0488;                           !- X,Y,Z Vertex 4 {m}

OS:ThermalZone,
  {09b04364-3ae0-45e1-bed6-4d5c9b97abc2}, !- Handle
  Dining Thermal Zone,                    !- Name
  1,                                      !- Multiplier
  ,                                       !- Ceiling Height {m}
  ,                                       !- Volume {m3}
  ,                                       !- Floor Area {m2}
  ,                                       !- Zone Inside Convection Algorithm
  ,                                       !- Zone Outside Convection Algorithm
  ,                                       !- Zone Conditioning Equipment List Name
  {23c06c83-67f8-4800-9cbf-dbe63ac4acce}, !- Zone Air Inlet Port List
  {26281579-fbfe-4ce7-9413-16e7dce4cc65}, !- Zone Air Exhaust Port List
  {c1adc54f-cb8d-47be-818d-af9abd1680b4}, !- Zone Air Node Name
  ,                                       !- Zone Return Air Node Name
  ,                                       !- Primary Daylighting Control Name
  ,                                       !- Fraction of Zone Controlled by Primary Daylighting Control
  ,                                       !- Secondary Daylighting Control Name
  ,                                       !- Fraction of Zone Controlled by Secondary Daylighting Control
  ,                                       !- Illuminance Map Name
  ,                                       !- Group Rendering Name
  {7c86e009-60dc-4f3d-92ff-7b1b05ed301d}, !- Thermostat Name
  Yes;                                    !- Use Ideal Air Loads

OS:Node,
  {d2fe8d4e-b0c9-45e5-99f2-0c811cd28be7}, !- Handle
  {0887c671-1d45-4ffd-9a27-5a9ce092e3e0}, !- Name
  {c1adc54f-cb8d-47be-818d-af9abd1680b4}, !- Inlet Port
  ;                                       !- Outlet Port

OS:Connection,
  {c1adc54f-cb8d-47be-818d-af9abd1680b4}, !- Handle
  {81d9ff58-e14b-4bbc-9288-518ca61025a7}, !- Name
  {09b04364-3ae0-45e1-bed6-4d5c9b97abc2}, !- Source Object
  11,                                     !- Outlet Port
  {d2fe8d4e-b0c9-45e5-99f2-0c811cd28be7}, !- Target Object
  2;                                      !- Inlet Port

OS:PortList,
  {23c06c83-67f8-4800-9cbf-dbe63ac4acce}, !- Handle
  {d482845c-8c27-4daf-b621-86ddbde943c9}, !- Name
  {09b04364-3ae0-45e1-bed6-4d5c9b97abc2}; !- HVAC Component

OS:PortList,
  {26281579-fbfe-4ce7-9413-16e7dce4cc65}, !- Handle
  {f3552cba-147c-4531-8139-4e848124445a}, !- Name
  {09b04364-3ae0-45e1-bed6-4d5c9b97abc2}; !- HVAC Component

OS:Sizing:Zone,
  {4991fac1-e0a6-43dd-81c1-f672a3fd8530}, !- Handle
  {09b04364-3ae0-45e1-bed6-4d5c9b97abc2}, !- Zone or ZoneList Name
  14,                                     !- Zone Cooling Design Supply Air Temperature {C}
  40,                                     !- Zone Heating Design Supply Air Temperature {C}
  0.0085,                                 !- Zone Cooling Design Supply Air Humidity Ratio {kg-H2O/kg-air}
  0.008,                                  !- Zone Heating Design Supply Air Humidity Ratio {kg-H2O/kg-air}
  ,                                       !- Zone Heating Sizing Factor
  ,                                       !- Zone Cooling Sizing Factor
  DesignDay,                              !- Cooling Design Air Flow Method
  ,                                       !- Cooling Design Air Flow Rate {m3/s}
  ,                                       !- Cooling Minimum Air Flow per Zone Floor Area {m3/s-m2}
  ,                                       !- Cooling Minimum Air Flow {m3/s}
  ,                                       !- Cooling Minimum Air Flow Fraction
  DesignDay,                              !- Heating Design Air Flow Method
  ,                                       !- Heating Design Air Flow Rate {m3/s}
  ,                                       !- Heating Maximum Air Flow per Zone Floor Area {m3/s-m2}
  ,                                       !- Heating Maximum Air Flow {m3/s}
  ,                                       !- Heating Maximum Air Flow Fraction
  ,                                       !- Design Zone Air Distribution Effectiveness in Cooling Mode
  ;                                       !- Design Zone Air Distribution Effectiveness in Heating Mode

OS:ZoneHVAC:EquipmentList,
  {df3275cd-943b-4bc8-8465-726fdf135ef7}, !- Handle
  {faf3a3ed-e406-4c88-b861-1aa4a1345cc4}, !- Name
  {09b04364-3ae0-45e1-bed6-4d5c9b97abc2}; !- Thermal Zone

OS:Space,
  {0720640b-1651-4b5b-941a-5335f1aa6016}, !- Handle
  Dining,                                 !- Name
  {58baf9ec-d1ff-4286-93d6-d73f51c017f3}, !- Space Type Name
  ,                                       !- Default Construction Set Name
  ,                                       !- Default Schedule Set Name
  0,                                      !- Direction of Relative North {deg}
  0,                                      !- X Origin {m}
  0,                                      !- Y Origin {m}
  0,                                      !- Z Origin {m}
  {55d524ae-4b86-42a1-9b2e-f040b6465100}, !- Building Story Name
  {09b04364-3ae0-45e1-bed6-4d5c9b97abc2}, !- Thermal Zone Name
  Yes,                                    !- Part of Total Floor Area
  ;                                       !- Design Specification Outdoor Air Object Name

OS:Meter,
  {16129dea-c81a-41d1-bdec-b142dc6da011}, !- Handle
  Humidifier:Electricity,                 !- Name
  hourly,                                 !- Reporting Frequency
  False,                                  !- Meter File Only
  False;                                  !- Cumulative

OS:Meter,
  {95a3bf63-2a2a-43bd-b512-9d1551527cea}, !- Handle
  Refrigeration:Electricity,              !- Name
  hourly,                                 !- Reporting Frequency
  False,                                  !- Meter File Only
  False;                                  !- Cumulative

OS:ThermalZone,
  {eb7d1bbf-e83a-4a81-8fd2-37928354bea6}, !- Handle
  attic Thermal Zone,                     !- Name
  1,                                      !- Multiplier
  ,                                       !- Ceiling Height {m}
  ,                                       !- Volume {m3}
  ,                                       !- Floor Area {m2}
  ,                                       !- Zone Inside Convection Algorithm
  ,                                       !- Zone Outside Convection Algorithm
  ,                                       !- Zone Conditioning Equipment List Name
  {d390650e-0dcb-4151-97fa-df40b4ac0af2}, !- Zone Air Inlet Port List
  {47e1fe50-7bf2-4396-b8b4-f5b5894f1f4b}, !- Zone Air Exhaust Port List
  {6150c912-42be-4a85-bdfb-3c25ea7db7d2}, !- Zone Air Node Name
  ,                                       !- Zone Return Air Node Name
  ,                                       !- Primary Daylighting Control Name
  ,                                       !- Fraction of Zone Controlled by Primary Daylighting Control
  ,                                       !- Secondary Daylighting Control Name
  ,                                       !- Fraction of Zone Controlled by Secondary Daylighting Control
  ,                                       !- Illuminance Map Name
  ,                                       !- Group Rendering Name
  {7c86e009-60dc-4f3d-92ff-7b1b05ed301d}, !- Thermostat Name
  Yes;                                    !- Use Ideal Air Loads

OS:Node,
  {82dae782-d4fd-4e21-866a-20c68331caa2}, !- Handle
  {c7a5e22a-d6ec-4294-8024-4ac27a4f1b3e}, !- Name
  {6150c912-42be-4a85-bdfb-3c25ea7db7d2}, !- Inlet Port
  ;                                       !- Outlet Port

OS:Connection,
  {6150c912-42be-4a85-bdfb-3c25ea7db7d2}, !- Handle
  {5d3e7837-e0f7-42ae-8b31-fd746e899e2d}, !- Name
  {eb7d1bbf-e83a-4a81-8fd2-37928354bea6}, !- Source Object
  11,                                     !- Outlet Port
  {82dae782-d4fd-4e21-866a-20c68331caa2}, !- Target Object
  2;                                      !- Inlet Port

OS:PortList,
  {d390650e-0dcb-4151-97fa-df40b4ac0af2}, !- Handle
  {6eb5c02c-0acb-40f2-bea2-38010dc8a848}, !- Name
  {eb7d1bbf-e83a-4a81-8fd2-37928354bea6}; !- HVAC Component

OS:PortList,
  {47e1fe50-7bf2-4396-b8b4-f5b5894f1f4b}, !- Handle
  {bb494d45-79d7-4174-b95d-445c10331d1b}, !- Name
  {eb7d1bbf-e83a-4a81-8fd2-37928354bea6}; !- HVAC Component

OS:Sizing:Zone,
  {8d06408a-2ff8-4ff9-b50b-2fbcdd0cba02}, !- Handle
  {eb7d1bbf-e83a-4a81-8fd2-37928354bea6}, !- Zone or ZoneList Name
  14,                                     !- Zone Cooling Design Supply Air Temperature {C}
  40,                                     !- Zone Heating Design Supply Air Temperature {C}
  0.0085,                                 !- Zone Cooling Design Supply Air Humidity Ratio {kg-H2O/kg-air}
  0.008,                                  !- Zone Heating Design Supply Air Humidity Ratio {kg-H2O/kg-air}
  ,                                       !- Zone Heating Sizing Factor
  ,                                       !- Zone Cooling Sizing Factor
  DesignDay,                              !- Cooling Design Air Flow Method
  ,                                       !- Cooling Design Air Flow Rate {m3/s}
  ,                                       !- Cooling Minimum Air Flow per Zone Floor Area {m3/s-m2}
  ,                                       !- Cooling Minimum Air Flow {m3/s}
  ,                                       !- Cooling Minimum Air Flow Fraction
  DesignDay,                              !- Heating Design Air Flow Method
  ,                                       !- Heating Design Air Flow Rate {m3/s}
  ,                                       !- Heating Maximum Air Flow per Zone Floor Area {m3/s-m2}
  ,                                       !- Heating Maximum Air Flow {m3/s}
  ,                                       !- Heating Maximum Air Flow Fraction
  ,                                       !- Design Zone Air Distribution Effectiveness in Cooling Mode
  ;                                       !- Design Zone Air Distribution Effectiveness in Heating Mode

OS:ZoneHVAC:EquipmentList,
  {181e97c4-3326-47cd-b9f2-62e76672661f}, !- Handle
  {2724781a-7afb-402d-bfef-ae7c8dfba938}, !- Name
  {eb7d1bbf-e83a-4a81-8fd2-37928354bea6}; !- Thermal Zone

OS:Space,
  {fe3cf121-055e-44e3-841a-0adff7b41a49}, !- Handle
  attic,                                  !- Name
  {32c9d760-30c7-4fa5-ba0d-de7f486cbf50}, !- Space Type Name
  ,                                       !- Default Construction Set Name
  ,                                       !- Default Schedule Set Name
  0,                                      !- Direction of Relative North {deg}
  0,                                      !- X Origin {m}
  0,                                      !- Y Origin {m}
  3.0488,                                 !- Z Origin {m}
  {583c90e0-e9fe-4208-bfd5-f3d80a47bbef}, !- Building Story Name
  {eb7d1bbf-e83a-4a81-8fd2-37928354bea6}, !- Thermal Zone Name
  No;                                     !- Part of Total Floor Area

OS:ThermalZone,
  {1574f993-a277-45c4-9ca8-9c4af3eb9187}, !- Handle
  Kitchen Thermal Zone,                   !- Name
  1,                                      !- Multiplier
  ,                                       !- Ceiling Height {m}
  ,                                       !- Volume {m3}
  ,                                       !- Floor Area {m2}
  ,                                       !- Zone Inside Convection Algorithm
  ,                                       !- Zone Outside Convection Algorithm
  ,                                       !- Zone Conditioning Equipment List Name
  {7b803879-e15e-4b12-8424-41726006dfb9}, !- Zone Air Inlet Port List
  {4e2a9db9-e85b-469d-a9c4-4ac8c2188201}, !- Zone Air Exhaust Port List
  {43ca3e50-537c-49d2-9afb-b2afcf626b64}, !- Zone Air Node Name
  ,                                       !- Zone Return Air Node Name
  ,                                       !- Primary Daylighting Control Name
  ,                                       !- Fraction of Zone Controlled by Primary Daylighting Control
  ,                                       !- Secondary Daylighting Control Name
  ,                                       !- Fraction of Zone Controlled by Secondary Daylighting Control
  ,                                       !- Illuminance Map Name
  ,                                       !- Group Rendering Name
  {7c86e009-60dc-4f3d-92ff-7b1b05ed301d}, !- Thermostat Name
  Yes;                                    !- Use Ideal Air Loads

OS:Node,
  {577e08d5-4742-4dd2-9e44-6cf7a202243a}, !- Handle
  {f8e86668-b639-4f65-85f6-966e68ee8990}, !- Name
  {43ca3e50-537c-49d2-9afb-b2afcf626b64}, !- Inlet Port
  ;                                       !- Outlet Port

OS:Connection,
  {43ca3e50-537c-49d2-9afb-b2afcf626b64}, !- Handle
  {67d94162-22ef-4c12-881c-d619c5acf980}, !- Name
  {1574f993-a277-45c4-9ca8-9c4af3eb9187}, !- Source Object
  11,                                     !- Outlet Port
  {577e08d5-4742-4dd2-9e44-6cf7a202243a}, !- Target Object
  2;                                      !- Inlet Port

OS:PortList,
  {7b803879-e15e-4b12-8424-41726006dfb9}, !- Handle
  {17647aee-e599-4563-a9f7-6eff1e8cb651}, !- Name
  {1574f993-a277-45c4-9ca8-9c4af3eb9187}; !- HVAC Component

OS:PortList,
  {4e2a9db9-e85b-469d-a9c4-4ac8c2188201}, !- Handle
  {a4b8ed98-c3cf-4e95-bf8b-2d713ab1b3a5}, !- Name
  {1574f993-a277-45c4-9ca8-9c4af3eb9187}; !- HVAC Component

OS:Sizing:Zone,
  {08346f9c-3afc-4cf1-86a6-0db2654ad9be}, !- Handle
  {1574f993-a277-45c4-9ca8-9c4af3eb9187}, !- Zone or ZoneList Name
  14,                                     !- Zone Cooling Design Supply Air Temperature {C}
  40,                                     !- Zone Heating Design Supply Air Temperature {C}
  0.0085,                                 !- Zone Cooling Design Supply Air Humidity Ratio {kg-H2O/kg-air}
  0.008,                                  !- Zone Heating Design Supply Air Humidity Ratio {kg-H2O/kg-air}
  ,                                       !- Zone Heating Sizing Factor
  ,                                       !- Zone Cooling Sizing Factor
  DesignDay,                              !- Cooling Design Air Flow Method
  ,                                       !- Cooling Design Air Flow Rate {m3/s}
  ,                                       !- Cooling Minimum Air Flow per Zone Floor Area {m3/s-m2}
  ,                                       !- Cooling Minimum Air Flow {m3/s}
  ,                                       !- Cooling Minimum Air Flow Fraction
  DesignDay,                              !- Heating Design Air Flow Method
  ,                                       !- Heating Design Air Flow Rate {m3/s}
  ,                                       !- Heating Maximum Air Flow per Zone Floor Area {m3/s-m2}
  ,                                       !- Heating Maximum Air Flow {m3/s}
  ,                                       !- Heating Maximum Air Flow Fraction
  ,                                       !- Design Zone Air Distribution Effectiveness in Cooling Mode
  ;                                       !- Design Zone Air Distribution Effectiveness in Heating Mode

OS:ZoneHVAC:EquipmentList,
  {9091f28d-3827-4f41-a1d1-c17acd20f62e}, !- Handle
  {a84a10a5-1fe6-48a1-ae5a-1c279d2596eb}, !- Name
  {1574f993-a277-45c4-9ca8-9c4af3eb9187}; !- Thermal Zone

OS:Space,
  {1811f7bd-42f3-4cc6-94f6-dd404f9de715}, !- Handle
  Kitchen,                                !- Name
  {b93c0532-5ed0-48ad-80bc-257d4f478515}, !- Space Type Name
  ,                                       !- Default Construction Set Name
  ,                                       !- Default Schedule Set Name
  0,                                      !- Direction of Relative North {deg}
  0,                                      !- X Origin {m}
  0,                                      !- Y Origin {m}
  0,                                      !- Z Origin {m}
  {55d524ae-4b86-42a1-9b2e-f040b6465100}, !- Building Story Name
  {1574f993-a277-45c4-9ca8-9c4af3eb9187}, !- Thermal Zone Name
  Yes,                                    !- Part of Total Floor Area
  ;                                       !- Design Specification Outdoor Air Object Name

OS:Surface,
  {c6e02e0e-65f1-410b-8291-8caa5453b5be}, !- Handle
  Dining_Wall_West,                       !- Name
  Wall,                                   !- Surface Type
  ,                                       !- Construction Name
  {0720640b-1651-4b5b-941a-5335f1aa6016}, !- Space Name
  Outdoors,                               !- Outside Boundary Condition
  ,                                       !- Outside Boundary Condition Object
  SunExposed,                             !- Sun Exposure
  WindExposed,                            !- Wind Exposure
  ,                                       !- View Factor to Ground
  ,                                       !- Number of Vertices
  0, 7.6214, 3.0488,                      !- X,Y,Z Vertex 1 {m}
  0, 7.6214, 0,                           !- X,Y,Z Vertex 2 {m}
  0, 0, 0,                                !- X,Y,Z Vertex 3 {m}
  0, 0, 3.0488;                           !- X,Y,Z Vertex 4 {m}

OS:Surface,
  {c6a3758a-882b-478c-a832-c4d898af6f1c}, !- Handle
  Kitchen_Ceiling,                        !- Name
  RoofCeiling,                            !- Surface Type
  ,                                       !- Construction Name
  {1811f7bd-42f3-4cc6-94f6-dd404f9de715}, !- Space Name
  Surface,                                !- Outside Boundary Condition
  {38cf4ff5-1298-48a6-ae55-bb90b6465b85}, !- Outside Boundary Condition Object
  NoSun,                                  !- Sun Exposure
  NoWind,                                 !- Wind Exposure
  ,                                       !- View Factor to Ground
  ,                                       !- Number of Vertices
  15.2428, 7.6214, 3.0488,                !- X,Y,Z Vertex 1 {m}
  15.2428, 15.2428, 3.0488,               !- X,Y,Z Vertex 2 {m}
  0, 15.2428, 3.0488,                     !- X,Y,Z Vertex 3 {m}
  0, 7.6214, 3.0488;                      !- X,Y,Z Vertex 4 {m}

OS:Surface,
  {1621dc1c-0358-409b-94f3-3b3e60bc9d43}, !- Handle
  Dining_Wall_East,                       !- Name
  Wall,                                   !- Surface Type
  ,                                       !- Construction Name
  {0720640b-1651-4b5b-941a-5335f1aa6016}, !- Space Name
  Outdoors,                               !- Outside Boundary Condition
  ,                                       !- Outside Boundary Condition Object
  SunExposed,                             !- Sun Exposure
  WindExposed,                            !- Wind Exposure
  ,                                       !- View Factor to Ground
  ,                                       !- Number of Vertices
  15.2428, 0, 3.0488,                     !- X,Y,Z Vertex 1 {m}
  15.2428, 0, 0,                          !- X,Y,Z Vertex 2 {m}
  15.2428, 7.6214, 0,                     !- X,Y,Z Vertex 3 {m}
  15.2428, 7.6214, 3.0488;                !- X,Y,Z Vertex 4 {m}

OS:Curve:Quadratic,
  {903b351c-ebcc-4d91-89c2-adf65afdbf77}, !- Handle
  RACK1_RackCOPfTCurve,                   !- Name
  1.7603,                                 !- Coefficient1 Constant
  -0.0377,                                !- Coefficient2 x
  0.0004,                                 !- Coefficient3 x**2
  10,                                     !- Minimum Value of x {BasedOnField A2}
  35;                                     !- Maximum Value of x {BasedOnField A2}

OS:RunPeriod,
  {46b7aa16-a57a-4ff2-bfa9-262a0341dcd7}, !- Handle
  Run Period 1,                           !- Name
  1,                                      !- Begin Month
  1,                                      !- Begin Day of Month
  12,                                     !- End Month
  31,                                     !- End Day of Month
  No,                                     !- Use Weather File Holidays and Special Days
  No,                                     !- Use Weather File Daylight Saving Period
  No,                                     !- Apply Weekend Holiday Rule
  Yes,                                    !- Use Weather File Rain Indicators
  Yes,                                    !- Use Weather File Snow Indicators
  1;                                      !- Number of Times Runperiod to be Repeated

OS:YearDescription,
  {84b8224d-ff88-4c6d-8fa1-fea8b0311723}, !- Handle
  ,                                       !- Calendar Year
  Sunday;                                 !- Day of Week for Start Day

OS:Meter,
  {6a377054-58bc-461b-8140-6375c02adec7}, !- Handle
  Fans:Electricity,                       !- Name
  hourly,                                 !- Reporting Frequency
  False,                                  !- Meter File Only
  False;                                  !- Cumulative

OS:Surface,
  {79de1031-c03f-4418-b4f3-ab3254ed478a}, !- Handle
  north-roof,                             !- Name
  RoofCeiling,                            !- Surface Type
  ,                                       !- Construction Name
  {fe3cf121-055e-44e3-841a-0adff7b41a49}, !- Space Name
  Outdoors,                               !- Outside Boundary Condition
  ,                                       !- Outside Boundary Condition Object
  SunExposed,                             !- Sun Exposure
  WindExposed,                            !- Wind Exposure
  ,                                       !- View Factor to Ground
  ,                                       !- Number of Vertices
  12.7023, 7.6214, 2.5405,                !- X,Y,Z Vertex 1 {m}
  15.2428, 15.2428, 0,                    !- X,Y,Z Vertex 2 {m}
  0, 15.2428, 0,                          !- X,Y,Z Vertex 3 {m}
  2.5405, 7.6214, 2.5405;                 !- X,Y,Z Vertex 4 {m}

OS:Curve:Cubic,
  {e886c275-2040-43b3-89d6-b4311d7f95dc}, !- Handle
  ConstantCubic,                          !- Name
  1,                                      !- Coefficient1 Constant
  0,                                      !- Coefficient2 x
  0,                                      !- Coefficient3 x**2
  0,                                      !- Coefficient4 x**3
  -100,                                   !- Minimum Value of x {BasedOnField A2}
  100;                                    !- Maximum Value of x {BasedOnField A2}

OS:ShadowCalculation,
  {2a10d1ca-9a9a-4bf4-8d36-5abfec230735}, !- Handle
  15000,                                  !- Calculation Frequency
  15000;                                  !- Maximum Figures in Shadow Overlap Calculations

OS:Surface,
  {7a3bd415-102b-43bb-9300-676c05312904}, !- Handle
  Dining_Wall_North,                      !- Name
  Wall,                                   !- Surface Type
  ,                                       !- Construction Name
  {0720640b-1651-4b5b-941a-5335f1aa6016}, !- Space Name
  Surface,                                !- Outside Boundary Condition
  {59ade497-ab37-4a1d-9c07-e595fbb75da1}, !- Outside Boundary Condition Object
  NoSun,                                  !- Sun Exposure
  NoWind,                                 !- Wind Exposure
  ,                                       !- View Factor to Ground
  ,                                       !- Number of Vertices
  15.2428, 7.6214, 3.0488,                !- X,Y,Z Vertex 1 {m}
  15.2428, 7.6214, 0,                     !- X,Y,Z Vertex 2 {m}
  0, 7.6214, 0,                           !- X,Y,Z Vertex 3 {m}
  0, 7.6214, 3.0488;                      !- X,Y,Z Vertex 4 {m}

OS:Curve:Biquadratic,
  {beb957b0-82d6-48ae-b98a-16d8b9c5bdce}, !- Handle
  Measured_LowSpeedCoolCapLSFT,           !- Name
  0.4136,                                 !- Coefficient1 Constant
  0.03105,                                !- Coefficient2 x
  0,                                      !- Coefficient3 x**2
  0.006952,                               !- Coefficient4 y
  -0.0002128,                             !- Coefficient5 y**2
  0,                                      !- Coefficient6 x*y
  11.1,                                   !- Minimum Value of x {BasedOnField A2}
  29.4,                                   !- Maximum Value of x {BasedOnField A2}
  10,                                     !- Minimum Value of y {BasedOnField A3}
  50.3;                                   !- Maximum Value of y {BasedOnField A3}

OS:Surface,
  {7cd72e74-9cdc-4dda-bafe-2393a25d2351}, !- Handle
  Kitchen_Floor,                          !- Name
  Floor,                                  !- Surface Type
  ,                                       !- Construction Name
  {1811f7bd-42f3-4cc6-94f6-dd404f9de715}, !- Space Name
  Ground,                                 !- Outside Boundary Condition
  ,                                       !- Outside Boundary Condition Object
  NoSun,                                  !- Sun Exposure
  NoWind,                                 !- Wind Exposure
  ,                                       !- View Factor to Ground
  ,                                       !- Number of Vertices
  15.2428, 15.2428, 0,                    !- X,Y,Z Vertex 1 {m}
  15.2428, 7.6214, 0,                     !- X,Y,Z Vertex 2 {m}
  0, 7.6214, 0,                           !- X,Y,Z Vertex 3 {m}
  0, 15.2428, 0;                          !- X,Y,Z Vertex 4 {m}

OS:Surface,
  {8c670eed-dec6-498d-9df1-bf450ffaec7c}, !- Handle
  east-roof,                              !- Name
  RoofCeiling,                            !- Surface Type
  ,                                       !- Construction Name
  {fe3cf121-055e-44e3-841a-0adff7b41a49}, !- Space Name
  Outdoors,                               !- Outside Boundary Condition
  ,                                       !- Outside Boundary Condition Object
  SunExposed,                             !- Sun Exposure
  WindExposed,                            !- Wind Exposure
  ,                                       !- View Factor to Ground
  ,                                       !- Number of Vertices
  12.7023, 7.6214, 2.5405,                !- X,Y,Z Vertex 1 {m}
  15.2428, 0, 0,                          !- X,Y,Z Vertex 2 {m}
  15.2428, 15.2428, 0;                    !- X,Y,Z Vertex 3 {m}

OS:Surface,
  {80dac109-1c0e-46b4-bf1e-6f3a6e074df9}, !- Handle
  Kitchen_Wall_West,                      !- Name
  Wall,                                   !- Surface Type
  ,                                       !- Construction Name
  {1811f7bd-42f3-4cc6-94f6-dd404f9de715}, !- Space Name
  Outdoors,                               !- Outside Boundary Condition
  ,                                       !- Outside Boundary Condition Object
  SunExposed,                             !- Sun Exposure
  WindExposed,                            !- Wind Exposure
  ,                                       !- View Factor to Ground
  ,                                       !- Number of Vertices
  0, 15.2428, 3.0488,                     !- X,Y,Z Vertex 1 {m}
  0, 15.2428, 0,                          !- X,Y,Z Vertex 2 {m}
  0, 7.6214, 0,                           !- X,Y,Z Vertex 3 {m}
  0, 7.6214, 3.0488;                      !- X,Y,Z Vertex 4 {m}

OS:Meter,
  {735bc97e-d08e-4a00-bce9-9e1e38c052fd}, !- Handle
  Pumps:Electricity,                      !- Name
  hourly,                                 !- Reporting Frequency