
OS:Version,
  {7b702b87-485f-4cf6-a8f2-588b5eb49766}, !- Handle
  1.6.0;                                  !- Version Identifier

OS:Site,
  {c08d3c3e-18f6-44f0-a671-4b125b5215f9}, !- Handle
  Calgary Int'l_AB_CAN,                   !- Name
  51.12,                                  !- Latitude {deg}
  -114.02,                                !- Longitude {deg}
  -7,                                     !- Time Zone {hr}
  1084,                                   !- Elevation {m}
  City;                                   !- Terrain

OS:SimulationControl,
  {a75e4694-798e-495f-8a49-c51f5f4eb0d9}, !- Handle
  Yes,                                    !- Do Zone Sizing Calculation
  Yes,                                    !- Do System Sizing Calculation
  Yes,                                    !- Do Plant Sizing Calculation
  No,                                     !- Run Simulation for Sizing Periods
  Yes,                                    !- Run Simulation for Weather File Run Periods
  0.04,                                   !- Loads Convergence Tolerance Value
  0.2,                                    !- Temperature Convergence Tolerance Value {deltaC}
  FullInteriorAndExterior,                !- Solar Distribution
  25,                                     !- Maximum Number of Warmup Days
  6;                                      !- Minimum Number of Warmup Days

OS:ThermalZone,
  {0f010ccd-2629-4246-9e7e-ac23377e96cf}, !- Handle
  Mult_Class_2_Pod_1_ZN_1_FLR_2 Thermal Zone, !- Name
  1,                                      !- Multiplier
  ,                                       !- Ceiling Height {m}
  ,                                       !- Volume {m3}
  ,                                       !- Floor Area {m2}
  ,                                       !- Zone Inside Convection Algorithm
  ,                                       !- Zone Outside Convection Algorithm
  ,                                       !- Zone Conditioning Equipment List Name
  {969d2051-717d-4afb-8885-7abb5d847f45}, !- Zone Air Inlet Port List
  {7eda0b29-468c-48bb-9136-8d4d21a23980}, !- Zone Air Exhaust Port List
  {c397dca7-9ee9-41f7-9b08-fb1b6d2def03}, !- Zone Air Node Name
  ,                                       !- Zone Return Air Node Name
  ,                                       !- Primary Daylighting Control Name
  ,                                       !- Fraction of Zone Controlled by Primary Daylighting Control
  ,                                       !- Secondary Daylighting Control Name
  ,                                       !- Fraction of Zone Controlled by Secondary Daylighting Control
  ,                                       !- Illuminance Map Name
  ,                                       !- Group Rendering Name
  {939a0375-101c-4c63-b3f2-f12d1f94a55f}, !- Thermostat Name
  Yes;                                    !- Use Ideal Air Loads

OS:Node,
  {a0e00364-569b-4ba4-9d2d-2d508ee8a4ac}, !- Handle
  {c92538f9-6706-4397-9bdf-06595173d1a0}, !- Name
  {c397dca7-9ee9-41f7-9b08-fb1b6d2def03}, !- Inlet Port
  ;                                       !- Outlet Port

OS:Connection,
  {c397dca7-9ee9-41f7-9b08-fb1b6d2def03}, !- Handle
  {da8c6616-0b80-4056-846e-9529b80a0965}, !- Name
  {0f010ccd-2629-4246-9e7e-ac23377e96cf}, !- Source Object
  11,                                     !- Outlet Port
  {a0e00364-569b-4ba4-9d2d-2d508ee8a4ac}, !- Target Object
  2;                                      !- Inlet Port

OS:PortList,
  {969d2051-717d-4afb-8885-7abb5d847f45}, !- Handle
  {3cf38529-4676-43a0-8de0-46abfc8528d1}, !- Name
  {0f010ccd-2629-4246-9e7e-ac23377e96cf}; !- HVAC Component

OS:PortList,
  {7eda0b29-468c-48bb-9136-8d4d21a23980}, !- Handle
  {1f776df7-1067-4b4b-a52f-39ef33c5a2b1}, !- Name
  {0f010ccd-2629-4246-9e7e-ac23377e96cf}; !- HVAC Component

OS:Sizing:Zone,
  {c11ff98c-1f43-40fa-afae-b80978bb41a8}, !- Handle
  {0f010ccd-2629-4246-9e7e-ac23377e96cf}, !- Zone or ZoneList Name
  12.8,                                   !- Zone Cooling Design Supply Air Temperature {C}
  50,                                     !- Zone Heating Design Supply Air Temperature {C}
  0.0085,                                 !- Zone Cooling Design Supply Air Humidity Ratio {kg-H2O/kg-air}
  0.008,                                  !- Zone Heating Design Supply Air Humidity Ratio {kg-H2O/kg-air}
  ,                                       !- Zone Heating Sizing Factor
  ,                                       !- Zone Cooling Sizing Factor
  DesignDay,                              !- Cooling Design Air Flow Method
  ,                                       !- Cooling Design Air Flow Rate {m3/s}
  ,                                       !- Cooling Minimum Air Flow per Zone Floor Area {m3/s-m2}
  ,                                       !- Cooling Minimum Air Flow {m3/s}
  ,                                       !- Cooling Minimum Air Flow Fraction
  DesignDay,                              !- Heating Design Air Flow Method
  ,                                       !- Heating Design Air Flow Rate {m3/s}
  ,                                       !- Heating Maximum Air Flow per Zone Floor Area {m3/s-m2}
  ,                                       !- Heating Maximum Air Flow {m3/s}
  ,                                       !- Heating Maximum Air Flow Fraction
  ,                                       !- Design Zone Air Distribution Effectiveness in Cooling Mode
  ;                                       !- Design Zone Air Distribution Effectiveness in Heating Mode

OS:ZoneHVAC:EquipmentList,
  {cf01fc30-457e-4246-a647-148febaf0c76}, !- Handle
  {3f8e5544-eb91-46fb-9719-754ec5b25c60}, !- Name
  {0f010ccd-2629-4246-9e7e-ac23377e96cf}; !- Thermal Zone

OS:Space,
  {e6df1a93-1ba9-4b0c-b4a0-f19f7656b0a5}, !- Handle
  Mult_Class_2_Pod_1_ZN_1_FLR_2,          !- Name
  {5a1ee6b6-4f14-4a42-8b2f-1ea77a4d00a6}, !- Space Type Name
  ,                                       !- Default Construction Set Name
  ,                                       !- Default Schedule Set Name
  0,                                      !- Direction of Relative North {deg}
  11,                                     !- X Origin {m}
  14,                                     !- Y Origin {m}
  4,                                      !- Z Origin {m}
  {ef20f031-d938-41da-a398-f94113696be8}, !- Building Story Name
  {0f010ccd-2629-4246-9e7e-ac23377e96cf}, !- Thermal Zone Name
  Yes,                                    !- Part of Total Floor Area
  ;                                       !- Design Specification Outdoor Air Object Name

OS:Surface,
  {6ca9adcb-44cc-410d-886b-d2c71c9633f0}, !- Handle
  Mult_Class_1_Pod_3_ZN_1_FLR_1_Wall_2,   !- Name
  Wall,                                   !- Surface Type
  ,                                       !- Construction Name
  {e1a8eae2-edee-4c25-bd32-cc28e3670d69}, !- Space Name
  Surface,                                !- Outside Boundary Condition
  {a06e5f99-36f9-4adc-959d-a4f47ef7ad87}, !- Outside Boundary Condition Object
  NoSun,                                  !- Sun Exposure
  NoWind,                                 !- Wind Exposure
  ,                                       !- View Factor to Ground
  ,                                       !- Number of Vertices
  53, 0, 4,                               !- X,Y,Z Vertex 1 {m}
  53, 0, 0,                               !- X,Y,Z Vertex 2 {m}
  53, 9, 0,                               !- X,Y,Z Vertex 3 {m}
  53, 9, 4;                               !- X,Y,Z Vertex 4 {m}

OS:ThermalZone,
  {878f5096-cf5c-418f-a7be-0cfa8cb75c4e}, !- Handle
  Mult_Class_1_Pod_3_ZN_1_FLR_1 Thermal Zone, !- Name
  1,                                      !- Multiplier
  ,                                       !- Ceiling Height {m}
  ,                                       !- Volume {m3}
  ,                                       !- Floor Area {m2}
  ,                                       !- Zone Inside Convection Algorithm
  ,                                       !- Zone Outside Convection Algorithm
  ,                                       !- Zone Conditioning Equipment List Name
  {0ee70e12-09c2-4a1d-9c55-3c8436d5a84b}, !- Zone Air Inlet Port List
  {2086efbe-c8a4-4f19-8888-2672d6a4da52}, !- Zone Air Exhaust Port List
  {56288d7a-de8f-44d0-98c2-9632e5bf3fc7}, !- Zone Air Node Name
  ,                                       !- Zone Return Air Node Name
  ,                                       !- Primary Daylighting Control Name
  ,                                       !- Fraction of Zone Controlled by Primary Daylighting Control
  ,                                       !- Secondary Daylighting Control Name
  ,                                       !- Fraction of Zone Controlled by Secondary Daylighting Control
  ,                                       !- Illuminance Map Name
  ,                                       !- Group Rendering Name
  {939a0375-101c-4c63-b3f2-f12d1f94a55f}, !- Thermostat Name
  Yes;                                    !- Use Ideal Air Loads

OS:Node,
  {788c8589-70cd-450f-839d-b0e6702c4f02}, !- Handle
  {63330a81-c6f6-4972-bbb3-050d9a322f5a}, !- Name
  {56288d7a-de8f-44d0-98c2-9632e5bf3fc7}, !- Inlet Port
  ;                                       !- Outlet Port

OS:Connection,
  {56288d7a-de8f-44d0-98c2-9632e5bf3fc7}, !- Handle
  {5b71ab42-6cd7-4d67-bba0-3d37c245eda7}, !- Name
  {878f5096-cf5c-418f-a7be-0cfa8cb75c4e}, !- Source Object
  11,                                     !- Outlet Port
  {788c8589-70cd-450f-839d-b0e6702c4f02}, !- Target Object
  2;                                      !- Inlet Port

OS:PortList,
  {0ee70e12-09c2-4a1d-9c55-3c8436d5a84b}, !- Handle
  {2a5f79c1-ae0b-4137-a2a5-0d7470499441}, !- Name
  {878f5096-cf5c-418f-a7be-0cfa8cb75c4e}; !- HVAC Component

OS:PortList,
  {2086efbe-c8a4-4f19-8888-2672d6a4da52}, !- Handle
  {55dc176b-ba2b-43b7-9827-406d464cf4fc}, !- Name
  {878f5096-cf5c-418f-a7be-0cfa8cb75c4e}; !- HVAC Component

OS:Sizing:Zone,
  {fc02d0d0-dc21-499c-b394-aa48629fad8e}, !- Handle
  {878f5096-cf5c-418f-a7be-0cfa8cb75c4e}, !- Zone or ZoneList Name
  12.8,                                   !- Zone Cooling Design Supply Air Temperature {C}
  50,                                     !- Zone Heating Design Supply Air Temperature {C}
  0.0085,                                 !- Zone Cooling Design Supply Air Humidity Ratio {kg-H2O/kg-air}
  0.008,                                  !- Zone Heating Design Supply Air Humidity Ratio {kg-H2O/kg-air}
  ,                                       !- Zone Heating Sizing Factor
  ,                                       !- Zone Cooling Sizing Factor
  DesignDay,                              !- Cooling Design Air Flow Method
  ,                                       !- Cooling Design Air Flow Rate {m3/s}
  ,                                       !- Cooling Minimum Air Flow per Zone Floor Area {m3/s-m2}
  ,                                       !- Cooling Minimum Air Flow {m3/s}
  ,                                       !- Cooling Minimum Air Flow Fraction
  DesignDay,                              !- Heating Design Air Flow Method
  ,                                       !- Heating Design Air Flow Rate {m3/s}
  ,                                       !- Heating Maximum Air Flow per Zone Floor Area {m3/s-m2}
  ,                                       !- Heating Maximum Air Flow {m3/s}
  ,                                       !- Heating Maximum Air Flow Fraction
  ,                                       !- Design Zone Air Distribution Effectiveness in Cooling Mode
  ;                                       !- Design Zone Air Distribution Effectiveness in Heating Mode

OS:ZoneHVAC:EquipmentList,
  {e9d0acec-bb4a-41ef-b1e7-139133640725}, !- Handle
  {03cf5606-84dd-486b-848c-f7768ae44096}, !- Name
  {878f5096-cf5c-418f-a7be-0cfa8cb75c4e}; !- Thermal Zone

OS:Space,
  {e1a8eae2-edee-4c25-bd32-cc28e3670d69}, !- Handle
  Mult_Class_1_Pod_3_ZN_1_FLR_1,          !- Name
  {5a1ee6b6-4f14-4a42-8b2f-1ea77a4d00a6}, !- Space Type Name
  ,                                       !- Default Construction Set Name
  ,                                       !- Default Schedule Set Name
  0,                                      !- Direction of Relative North {deg}
  11,                                     !- X Origin {m}
  81,                                     !- Y Origin {m}
  0,                                      !- Z Origin {m}
  {d4bbeff1-afd7-456c-be42-84f0162ddbe1}, !- Building Story Name
  {878f5096-cf5c-418f-a7be-0cfa8cb75c4e}, !- Thermal Zone Name
  Yes,                                    !- Part of Total Floor Area
  ;                                       !- Design Specification Outdoor Air Object Name

OS:Surface,
  {6d993bc0-0ac8-471a-a525-ab4da2695f7e}, !- Handle
  Aux_Gym_ZN_1_FLR_2_Wall_1,              !- Name
  Wall,                                   !- Surface Type
  ,                                       !- Construction Name
  {f033661d-d355-4ddb-9436-81ccf5c95392}, !- Space Name
  Outdoors,                               !- Outside Boundary Condition
  ,                                       !- Outside Boundary Condition Object
  SunExposed,                             !- Sun Exposure
  WindExposed,                            !- Wind Exposure
  ,                                       !- View Factor to Ground
  ,                                       !- Number of Vertices
  0, 0, 8,                                !- X,Y,Z Vertex 1 {m}
  0, 0, 4,                                !- X,Y,Z Vertex 2 {m}
  24, 0, 4,                               !- X,Y,Z Vertex 3 {m}
  24, 0, 8;                               !- X,Y,Z Vertex 4 {m}

OS:ThermalZone,
  {9a17ed46-c2a9-48ff-b541-657fc4573322}, !- Handle
  Aux_Gym_ZN_1_FLR_1 Thermal Zone,        !- Name
  1,                                      !- Multiplier
  ,                                       !- Ceiling Height {m}
  ,                                       !- Volume {m3}
  ,                                       !- Floor Area {m2}
  ,                                       !- Zone Inside Convection Algorithm
  ,                                       !- Zone Outside Convection Algorithm
  ,                                       !- Zone Conditioning Equipment List Name
  {dad91cbf-5b43-4cdb-a0af-2207be60d701}, !- Zone Air Inlet Port List
  {3a4fac39-b6e2-4162-8b69-905af544247c}, !- Zone Air Exhaust Port List
  {8b3f3a46-ac2d-47f5-ae4b-c6005d5cb6db}, !- Zone Air Node Name
  ,                                       !- Zone Return Air Node Name
  ,                                       !- Primary Daylighting Control Name
  ,                                       !- Fraction of Zone Controlled by Primary Daylighting Control
  ,                                       !- Secondary Daylighting Control Name
  ,                                       !- Fraction of Zone Controlled by Secondary Daylighting Control
  ,                                       !- Illuminance Map Name
  ,                                       !- Group Rendering Name
  {a944a6c9-f683-4cea-b6a4-d6f47b4f6fce}, !- Thermostat Name
  Yes;                                    !- Use Ideal Air Loads

OS:Node,
  {06828502-b544-4b3f-b61f-3ca6f4b03d01}, !- Handle
  {597045d1-5fd0-4a5b-bb20-dbe6dce68b33}, !- Name
  {8b3f3a46-ac2d-47f5-ae4b-c6005d5cb6db}, !- Inlet Port
  ;                                       !- Outlet Port

OS:Connection,
  {8b3f3a46-ac2d-47f5-ae4b-c6005d5cb6db}, !- Handle
  {f86213c7-3b4e-43ad-808d-723eaf739936}, !- Name
  {9a17ed46-c2a9-48ff-b541-657fc4573322}, !- Source Object
  11,                                     !- Outlet Port
  {06828502-b544-4b3f-b61f-3ca6f4b03d01}, !- Target Object
  2;                                      !- Inlet Port

OS:PortList,
  {dad91cbf-5b43-4cdb-a0af-2207be60d701}, !- Handle
  {d7cced04-f2c0-4d0f-85cd-6fc797564948}, !- Name
  {9a17ed46-c2a9-48ff-b541-657fc4573322}; !- HVAC Component

OS:PortList,
  {3a4fac39-b6e2-4162-8b69-905af544247c}, !- Handle
  {65a006e7-1aaa-451f-a1b2-fe3ca5027724}, !- Name
  {9a17ed46-c2a9-48ff-b541-657fc4573322}; !- HVAC Component

OS:Sizing:Zone,
  {32d1b260-dd09-418b-933f-c034bcdcec36}, !- Handle
  {9a17ed46-c2a9-48ff-b541-657fc4573322}, !- Zone or ZoneList Name
  12.8,                                   !- Zone Cooling Design Supply Air Temperature {C}
  50,                                     !- Zone Heating Design Supply Air Temperature {C}
  0.0085,                                 !- Zone Cooling Design Supply Air Humidity Ratio {kg-H2O/kg-air}
  0.008,                                  !- Zone Heating Design Supply Air Humidity Ratio {kg-H2O/kg-air}
  ,                                       !- Zone Heating Sizing Factor
  ,                                       !- Zone Cooling Sizing Factor
  DesignDay,                              !- Cooling Design Air Flow Method
  ,                                       !- Cooling Design Air Flow Rate {m3/s}
  ,                                       !- Cooling Minimum Air Flow per Zone Floor Area {m3/s-m2}
  ,                                       !- Cooling Minimum Air Flow {m3/s}
  ,                                       !- Cooling Minimum Air Flow Fraction
  DesignDay,                              !- Heating Design Air Flow Method
  ,                                       !- Heating Design Air Flow Rate {m3/s}
  ,                                       !- Heating Maximum Air Flow per Zone Floor Area {m3/s-m2}
  ,                                       !- Heating Maximum Air Flow {m3/s}
  ,                                       !- Heating Maximum Air Flow Fraction
  ,                                       !- Design Zone Air Distribution Effectiveness in Cooling Mode
  ;                                       !- Design Zone Air Distribution Effectiveness in Heating Mode

OS:ZoneHVAC:EquipmentList,
  {9b153093-34f0-449c-9c45-b59760955030}, !- Handle
  {9e4e0b67-bc66-443b-9341-665454f275da}, !- Name
  {9a17ed46-c2a9-48ff-b541-657fc4573322}; !- Thermal Zone

OS:Space,
  {f033661d-d355-4ddb-9436-81ccf5c95392}, !- Handle
  Aux_Gym_ZN_1_FLR_1,                     !- Name
  {6ec6082b-9a5b-4913-8764-9affb23caba1}, !- Space Type Name
  ,                                       !- Default Construction Set Name
  ,                                       !- Default Schedule Set Name
  0,                                      !- Direction of Relative North {deg}
  117,                                    !- X Origin {m}
  14,                                     !- Y Origin {m}
  0,                                      !- Z Origin {m}
  {d4bbeff1-afd7-456c-be42-84f0162ddbe1}, !- Building Story Name
  {9a17ed46-c2a9-48ff-b541-657fc4573322}, !- Thermal Zone Name
  Yes,                                    !- Part of Total Floor Area
  ;                                       !- Design Specification Outdoor Air Object Name

OS:Surface,
  {b185fd3f-5bd4-4ab7-853c-1d0bf10d00c1}, !- Handle
  Corner_Class_1_Pod_3_ZN_1_FLR_1_Wall_1, !- Name
  Wall,                                   !- Surface Type
  ,                                       !- Construction Name
  {2ad2364f-7945-4051-945d-f5e9dc808322}, !- Space Name
  Outdoors,                               !- Outside Boundary Condition
  ,                                       !- Outside Boundary Condition Object
  SunExposed,                             !- Sun Exposure
  WindExposed,                            !- Wind Exposure
  ,                                       !- View Factor to Ground
  ,                                       !- Number of Vertices
  0, 0, 4,                                !- X,Y,Z Vertex 1 {m}
  0, 0, 0,                                !- X,Y,Z Vertex 2 {m}
  11, 0, 0,                               !- X,Y,Z Vertex 3 {m}
  11, 0, 4;                               !- X,Y,Z Vertex 4 {m}

OS:ThermalZone,
  {feedeb42-5baf-4821-90ff-a15bb522676d}, !- Handle
  Corner_Class_1_Pod_3_ZN_1_FLR_1 Thermal Zone, !- Name
  1,                                      !- Multiplier
  ,                                       !- Ceiling Height {m}
  ,                                       !- Volume {m3}
  ,                                       !- Floor Area {m2}
  ,                                       !- Zone Inside Convection Algorithm
  ,                                       !- Zone Outside Convection Algorithm
  ,                                       !- Zone Conditioning Equipment List Name
  {5dddb51d-4e65-4ddc-9caa-cc9e823b398f}, !- Zone Air Inlet Port List
  {6ab08a04-ebff-4200-8e17-fc67a4c00aed}, !- Zone Air Exhaust Port List
  {7ca74bf6-633c-453a-8768-13cf6b14bcd6}, !- Zone Air Node Name
  ,                                       !- Zone Return Air Node Name
  ,                                       !- Primary Daylighting Control Name
  ,                                       !- Fraction of Zone Controlled by Primary Daylighting Control
  ,                                       !- Secondary Daylighting Control Name
  ,                                       !- Fraction of Zone Controlled by Secondary Daylighting Control
  ,                                       !- Illuminance Map Name
  ,                                       !- Group Rendering Name
  {939a0375-101c-4c63-b3f2-f12d1f94a55f}, !- Thermostat Name
  Yes;                                    !- Use Ideal Air Loads

OS:Node,
  {d0394d12-5b8a-448e-899f-6cdaa3315e3b}, !- Handle
  {2e233311-7daf-406f-a041-b1fbfd42b19f}, !- Name
  {7ca74bf6-633c-453a-8768-13cf6b14bcd6}, !- Inlet Port
  ;                                       !- Outlet Port

OS:Connection,
  {7ca74bf6-633c-453a-8768-13cf6b14bcd6}, !- Handle
  {a1993589-ae73-4976-bbc4-1a003ff9177c}, !- Name
  {feedeb42-5baf-4821-90ff-a15bb522676d}, !- Source Object
  11,                                     !- Outlet Port
  {d0394d12-5b8a-448e-899f-6cdaa3315e3b}, !- Target Object
  2;                                      !- Inlet Port

OS:PortList,
  {5dddb51d-4e65-4ddc-9caa-cc9e823b398f}, !- Handle
  {3ac75043-1a1b-4a29-a0e8-d3a9311342aa}, !- Name
  {feedeb42-5baf-4821-90ff-a15bb522676d}; !- HVAC Component

OS:PortList,
  {6ab08a04-ebff-4200-8e17-fc67a4c00aed}, !- Handle
  {c0e63f1e-77a5-4641-9a8c-b8f2e9fbe5db}, !- Name
  {feedeb42-5baf-4821-90ff-a15bb522676d}; !- HVAC Component

OS:Sizing:Zone,
  {00cf74c3-5c94-4a9a-b7a5-b2f7c6b07098}, !- Handle
  {feedeb42-5baf-4821-90ff-a15bb522676d}, !- Zone or ZoneList Name
  12.8,                                   !- Zone Cooling Design Supply Air Temperature {C}
  50,                                     !- Zone Heating Design Supply Air Temperature {C}
  0.0085,                                 !- Zone Cooling Design Supply Air Humidity Ratio {kg-H2O/kg-air}
  0.008,                                  !- Zone Heating Design Supply Air Humidity Ratio {kg-H2O/kg-air}
  ,                                       !- Zone Heating Sizing Factor
  ,                                       !- Zone Cooling Sizing Factor
  DesignDay,                              !- Cooling Design Air Flow Method
  ,                                       !- Cooling Design Air Flow Rate {m3/s}
  ,                                       !- Cooling Minimum Air Flow per Zone Floor Area {m3/s-m2}
  ,                                       !- Cooling Minimum Air Flow {m3/s}
  ,                                       !- Cooling Minimum Air Flow Fraction
  DesignDay,                              !- Heating Design Air Flow Method
  ,                                       !- Heating Design Air Flow Rate {m3/s}
  ,                                       !- Heating Maximum Air Flow per Zone Floor Area {m3/s-m2}
  ,                                       !- Heating Maximum Air Flow {m3/s}
  ,                                       !- Heating Maximum Air Flow Fraction
  ,                                       !- Design Zone Air Distribution Effectiveness in Cooling Mode
  ;                                       !- Design Zone Air Distribution Effectiveness in Heating Mode

OS:ZoneHVAC:EquipmentList,
  {d38242e0-6999-4f5f-802b-c34926aa54ae}, !- Handle
  {f5af9e8e-27e6-4ab9-94ae-7e01566b89fe}, !- Name
  {feedeb42-5baf-4821-90ff-a15bb522676d}; !- Thermal Zone

OS:Space,
  {2ad2364f-7945-4051-945d-f5e9dc808322}, !- Handle
  Corner_Class_1_Pod_3_ZN_1_FLR_1,        !- Name
  {5a1ee6b6-4f14-4a42-8b2f-1ea77a4d00a6}, !- Space Type Name
  ,                                       !- Default Construction Set Name
  ,                                       !- Default Schedule Set Name
  0,                                      !- Direction of Relative North {deg}
  0,                                      !- X Origin {m}
  81,                                     !- Y Origin {m}
  0,                                      !- Z Origin {m}
  {d4bbeff1-afd7-456c-be42-84f0162ddbe1}, !- Building Story Name
  {feedeb42-5baf-4821-90ff-a15bb522676d}, !- Thermal Zone Name
  Yes,                                    !- Part of Total Floor Area
  ;                                       !- Design Specification Outdoor Air Object Name

OS:Surface,
  {a88f8cef-1b78-4730-985f-c0702be9ba7f}, !- Handle
  Main_Corridor_ZN_1_FLR_1_Wall_7,        !- Name
  Wall,                                   !- Surface Type
  ,                                       !- Construction Name
  {912a59e1-10b0-4b2f-878d-62f5a3e79707}, !- Space Name
  Outdoors,                               !- Outside Boundary Condition
  ,                                       !- Outside Boundary Condition Object
  SunExposed,                             !- Sun Exposure
  WindExposed,                            !- Wind Exposure
  ,                                       !- View Factor to Ground
  ,                                       !- Number of Vertices
  0, 67, 4,                               !- X,Y,Z Vertex 1 {m}
  0, 67, 0,                               !- X,Y,Z Vertex 2 {m}
  0, 49, 0,                               !- X,Y,Z Vertex 3 {m}
  0, 49, 4;                               !- X,Y,Z Vertex 4 {m}

OS:ThermalZone,
  {141d84f4-ebd9-4ea6-8d9c-befbdfadfc4e}, !- Handle
  Main_Corridor_ZN_1_FLR_1 Thermal Zone,  !- Name
  1,                                      !- Multiplier
  ,                                       !- Ceiling Height {m}
  ,                                       !- Volume {m3}
  ,                                       !- Floor Area {m2}
  ,                                       !- Zone Inside Convection Algorithm
  ,                                       !- Zone Outside Convection Algorithm
  ,                                       !- Zone Conditioning Equipment List Name
  {12ad22a5-ac5a-423a-a5f5-be94845643b3}, !- Zone Air Inlet Port List
  {ca038aed-c686-45b4-ab22-ea9c6a0db432}, !- Zone Air Exhaust Port List
  {7c509a95-35b6-4bcb-873b-d2088ee87c65}, !- Zone Air Node Name
  ,                                       !- Zone Return Air Node Name
  ,                                       !- Primary Daylighting Control Name
  ,                                       !- Fraction of Zone Controlled by Primary Daylighting Control
  ,                                       !- Secondary Daylighting Control Name
  ,                                       !- Fraction of Zone Controlled by Secondary Daylighting Control
  ,                                       !- Illuminance Map Name
  ,                                       !- Group Rendering Name
  {939a0375-101c-4c63-b3f2-f12d1f94a55f}, !- Thermostat Name
  Yes;                                    !- Use Ideal Air Loads

OS:Node,
  {517423d5-d2e1-4226-936f-d3cf4975c639}, !- Handle
  {58a13d91-b3e1-4618-a409-160ee6263418}, !- Name
  {7c509a95-35b6-4bcb-873b-d2088ee87c65}, !- Inlet Port
  ;                                       !- Outlet Port

OS:Connection,
  {7c509a95-35b6-4bcb-873b-d2088ee87c65}, !- Handle
  {05b008d3-01e5-4624-9e4b-71c957dd1a27}, !- Name
  {141d84f4-ebd9-4ea6-8d9c-befbdfadfc4e}, !- Source Object
  11,                                     !- Outlet Port
  {517423d5-d2e1-4226-936f-d3cf4975c639}, !- Target Object
  2;                                      !- Inlet Port

OS:PortList,
  {12ad22a5-ac5a-423a-a5f5-be94845643b3}, !- Handle
  {2a410b8b-f5f3-42e4-97dc-1c065b3cc048}, !- Name
  {141d84f4-ebd9-4ea6-8d9c-befbdfadfc4e}; !- HVAC Component

OS:PortList,
  {ca038aed-c686-45b4-ab22-ea9c6a0db432}, !- Handle
  {4eb3f998-e3d4-4f5e-885a-534a214f93d0}, !- Name
  {141d84f4-ebd9-4ea6-8d9c-befbdfadfc4e}; !- HVAC Component

OS:Sizing:Zone,
  {8bfccce1-6f64-4d99-a855-a1712bd72a85}, !- Handle
  {141d84f4-ebd9-4ea6-8d9c-befbdfadfc4e}, !- Zone or ZoneList Name
  12.8,                                   !- Zone Cooling Design Supply Air Temperature {C}
  50,                                     !- Zone Heating Design Supply Air Temperature {C}
  0.0085,                                 !- Zone Cooling Design Supply Air Humidity Ratio {kg-H2O/kg-air}
  0.008,                                  !- Zone Heating Design Supply Air Humidity Ratio {kg-H2O/kg-air}
  ,                                       !- Zone Heating Sizing Factor
  ,                                       !- Zone Cooling Sizing Factor
  DesignDay,                              !- Cooling Design Air Flow Method
  ,                                       !- Cooling Design Air Flow Rate {m3/s}
  ,                                       !- Cooling Minimum Air Flow per Zone Floor Area {m3/s-m2}
  ,                                       !- Cooling Minimum Air Flow {m3/s}
  ,                                       !- Cooling Minimum Air Flow Fraction
  DesignDay,                              !- Heating Design Air Flow Method
  ,                                       !- Heating Design Air Flow Rate {m3/s}
  ,                                       !- Heating Maximum Air Flow per Zone Floor Area {m3/s-m2}
  ,                                       !- Heating Maximum Air Flow {m3/s}
  ,                                       !- Heating Maximum Air Flow Fraction
  ,                                       !- Design Zone Air Distribution Effectiveness in Cooling Mode