
OS:Version,
  {7d956d2b-9a91-46d4-9941-f6dae202af9a}, !- Handle
  1.6.0;                                  !- Version Identifier

OS:Site,
  {72ea109b-ffc5-43ab-ae77-3324b2e39945}, !- Handle
  Calgary Int'l_AB_CAN,                   !- Name
  51.12,                                  !- Latitude {deg}
  -114.02,                                !- Longitude {deg}
  -7,                                     !- Time Zone {hr}
  1084,                                   !- Elevation {m}
  City;                                   !- Terrain

OS:SimulationControl,
  {e1115d1c-9796-48d9-a8a7-63cf6b91656c}, !- Handle
  Yes,                                    !- Do Zone Sizing Calculation
  Yes,                                    !- Do System Sizing Calculation
  Yes,                                    !- Do Plant Sizing Calculation
  No,                                     !- Run Simulation for Sizing Periods
  Yes,                                    !- Run Simulation for Weather File Run Periods
  0.04,                                   !- Loads Convergence Tolerance Value
  0.2,                                    !- Temperature Convergence Tolerance Value {deltaC}
  FullInteriorAndExterior,                !- Solar Distribution
  25,                                     !- Maximum Number of Warmup Days
  6;                                      !- Minimum Number of Warmup Days

OS:Surface,
  {5f10b667-90fb-45d3-84f4-a925b7263afe}, !- Handle
  W_GuestRoom201_4_0_0,                   !- Name
  Wall,                                   !- Surface Type
  ,                                       !- Construction Name
  {73ab1261-f317-4416-a90d-9428bb04a6c4}, !- Space Name
  Outdoors,                               !- Outside Boundary Condition
  ,                                       !- Outside Boundary Condition Object
  SunExposed,                             !- Sun Exposure
  WindExposed,                            !- Wind Exposure
  ,                                       !- View Factor to Ground
  ,                                       !- Number of Vertices
  0.0487, 8.279, 6.096,                   !- X,Y,Z Vertex 1 {m}
  0.0487, 8.279, 3.3528,                  !- X,Y,Z Vertex 2 {m}
  0.0487, 0.0488, 3.3528,                 !- X,Y,Z Vertex 3 {m}
  0.0487, 0.0488, 6.096;                  !- X,Y,Z Vertex 4 {m}

OS:ThermalZone,
  {00d09ec5-7b3a-4ff8-974b-be32e0cd1547}, !- Handle
  GuestRoom201 Thermal Zone,              !- Name
  1,                                      !- Multiplier
  ,                                       !- Ceiling Height {m}
  ,                                       !- Volume {m3}
  ,                                       !- Floor Area {m2}
  ,                                       !- Zone Inside Convection Algorithm
  ,                                       !- Zone Outside Convection Algorithm
  ,                                       !- Zone Conditioning Equipment List Name
  {5e5d4f39-723c-41ef-b57c-8f7a9817c8cd}, !- Zone Air Inlet Port List
  {19b3bf14-a097-4721-99ea-bf9c89a55765}, !- Zone Air Exhaust Port List
  {d6444fa0-03da-4191-846c-228861dea78b}, !- Zone Air Node Name
  ,                                       !- Zone Return Air Node Name
  ,                                       !- Primary Daylighting Control Name
  ,                                       !- Fraction of Zone Controlled by Primary Daylighting Control
  ,                                       !- Secondary Daylighting Control Name
  ,                                       !- Fraction of Zone Controlled by Secondary Daylighting Control
  ,                                       !- Illuminance Map Name
  ,                                       !- Group Rendering Name
  {40e1e5fd-114e-434f-8874-e6d4ddbdc18b}, !- Thermostat Name
  Yes;                                    !- Use Ideal Air Loads

OS:Node,
  {2cbaf968-af25-4b96-81bf-fa6abf2300a1}, !- Handle
  {62f933d1-b581-4454-ae74-69c1a415101c}, !- Name
  {d6444fa0-03da-4191-846c-228861dea78b}, !- Inlet Port
  ;                                       !- Outlet Port

OS:Connection,
  {d6444fa0-03da-4191-846c-228861dea78b}, !- Handle
  {84b0c547-ea73-46f6-9142-7ef0a5bc21c7}, !- Name
  {00d09ec5-7b3a-4ff8-974b-be32e0cd1547}, !- Source Object
  11,                                     !- Outlet Port
  {2cbaf968-af25-4b96-81bf-fa6abf2300a1}, !- Target Object
  2;                                      !- Inlet Port

OS:PortList,
  {5e5d4f39-723c-41ef-b57c-8f7a9817c8cd}, !- Handle
  {6d497b90-9d06-44d2-95cf-58432c93e082}, !- Name
  {00d09ec5-7b3a-4ff8-974b-be32e0cd1547}; !- HVAC Component

OS:PortList,
  {19b3bf14-a097-4721-99ea-bf9c89a55765}, !- Handle
  {d1c935d9-98c8-4605-aa22-f6176d30be6e}, !- Name
  {00d09ec5-7b3a-4ff8-974b-be32e0cd1547}; !- HVAC Component

OS:Sizing:Zone,
  {72017832-2e18-43af-908b-2b7e9e3470a5}, !- Handle
  {00d09ec5-7b3a-4ff8-974b-be32e0cd1547}, !- Zone or ZoneList Name
  14,                                     !- Zone Cooling Design Supply Air Temperature {C}
  40,                                     !- Zone Heating Design Supply Air Temperature {C}
  0.0085,                                 !- Zone Cooling Design Supply Air Humidity Ratio {kg-H2O/kg-air}
  0.008,                                  !- Zone Heating Design Supply Air Humidity Ratio {kg-H2O/kg-air}
  ,                                       !- Zone Heating Sizing Factor
  ,                                       !- Zone Cooling Sizing Factor
  DesignDay,                              !- Cooling Design Air Flow Method
  ,                                       !- Cooling Design Air Flow Rate {m3/s}
  ,                                       !- Cooling Minimum Air Flow per Zone Floor Area {m3/s-m2}
  ,                                       !- Cooling Minimum Air Flow {m3/s}
  ,                                       !- Cooling Minimum Air Flow Fraction
  DesignDay,                              !- Heating Design Air Flow Method
  ,                                       !- Heating Design Air Flow Rate {m3/s}
  ,                                       !- Heating Maximum Air Flow per Zone Floor Area {m3/s-m2}
  ,                                       !- Heating Maximum Air Flow {m3/s}
  ,                                       !- Heating Maximum Air Flow Fraction
  ,                                       !- Design Zone Air Distribution Effectiveness in Cooling Mode
  ;                                       !- Design Zone Air Distribution Effectiveness in Heating Mode

OS:ZoneHVAC:EquipmentList,
  {49149ea9-5b12-4d3b-a810-c4c41e8c4ed0}, !- Handle
  {04a8b988-0991-4708-b229-d7a310a8953e}, !- Name
  {00d09ec5-7b3a-4ff8-974b-be32e0cd1547}; !- Thermal Zone

OS:Space,
  {73ab1261-f317-4416-a90d-9428bb04a6c4}, !- Handle
  GuestRoom201,                           !- Name
  {755b4e14-e51f-4bd7-8d76-a8c6f40b293d}, !- Space Type Name
  ,                                       !- Default Construction Set Name
  ,                                       !- Default Schedule Set Name
  0,                                      !- Direction of Relative North {deg}
  0,                                      !- X Origin {m}
  0,                                      !- Y Origin {m}
  0,                                      !- Z Origin {m}
  {7adff9a6-0c94-405b-9504-70d2743635b3}, !- Building Story Name
  {00d09ec5-7b3a-4ff8-974b-be32e0cd1547}, !- Thermal Zone Name
  Yes,                                    !- Part of Total Floor Area
  ;                                       !- Design Specification Outdoor Air Object Name

OS:Surface,
  {3b28f215-1008-49d6-bf0b-4131785c1ce3}, !- Handle
  W_FrontStairsFlr1_3_0_0,                !- Name
  Wall,                                   !- Surface Type
  ,                                       !- Construction Name
  {e82d2021-3b7c-4d9e-bf25-5d4c57e7041d}, !- Space Name
  Outdoors,                               !- Outside Boundary Condition
  ,                                       !- Outside Boundary Condition Object
  SunExposed,                             !- Sun Exposure
  WindExposed,                            !- Wind Exposure
  ,                                       !- View Factor to Ground
  ,                                       !- Number of Vertices
  2.4871, 18.3374, 3.3528,                !- X,Y,Z Vertex 1 {m}
  2.4871, 18.3374, 0,                     !- X,Y,Z Vertex 2 {m}
  0.0487, 18.3374, 0,                     !- X,Y,Z Vertex 3 {m}
  0.0487, 18.3374, 3.3528;                !- X,Y,Z Vertex 4 {m}

OS:ThermalZone,
  {110dd2a4-949e-4d52-87c2-a557bbb610cc}, !- Handle
  FrontStairsFlr1 Thermal Zone,           !- Name
  1,                                      !- Multiplier
  ,                                       !- Ceiling Height {m}
  ,                                       !- Volume {m3}
  ,                                       !- Floor Area {m2}
  ,                                       !- Zone Inside Convection Algorithm
  ,                                       !- Zone Outside Convection Algorithm
  ,                                       !- Zone Conditioning Equipment List Name
  {2d47a602-3ca2-4814-ae06-38bde762ee31}, !- Zone Air Inlet Port List
  {1e693e5a-4a8a-4591-afaf-563bab8d7e06}, !- Zone Air Exhaust Port List
  {d0b5366f-e6a6-4203-a592-89605d617f44}, !- Zone Air Node Name
  ,                                       !- Zone Return Air Node Name
  ,                                       !- Primary Daylighting Control Name
  ,                                       !- Fraction of Zone Controlled by Primary Daylighting Control
  ,                                       !- Secondary Daylighting Control Name
  ,                                       !- Fraction of Zone Controlled by Secondary Daylighting Control
  ,                                       !- Illuminance Map Name
  ,                                       !- Group Rendering Name
  {40e1e5fd-114e-434f-8874-e6d4ddbdc18b}, !- Thermostat Name
  Yes;                                    !- Use Ideal Air Loads

OS:Node,
  {851ddd26-ecac-4d89-82e2-02c1183dedc4}, !- Handle
  {9f66de37-b66f-4163-883f-8293e3fb6e30}, !- Name
  {d0b5366f-e6a6-4203-a592-89605d617f44}, !- Inlet Port
  ;                                       !- Outlet Port

OS:Connection,
  {d0b5366f-e6a6-4203-a592-89605d617f44}, !- Handle
  {c85f0aaa-f28d-4c26-883a-673d2e32a011}, !- Name
  {110dd2a4-949e-4d52-87c2-a557bbb610cc}, !- Source Object
  11,                                     !- Outlet Port
  {851ddd26-ecac-4d89-82e2-02c1183dedc4}, !- Target Object
  2;                                      !- Inlet Port

OS:PortList,
  {2d47a602-3ca2-4814-ae06-38bde762ee31}, !- Handle
  {92b9af3c-7c8a-466f-b359-2da7c757ee55}, !- Name
  {110dd2a4-949e-4d52-87c2-a557bbb610cc}; !- HVAC Component

OS:PortList,
  {1e693e5a-4a8a-4591-afaf-563bab8d7e06}, !- Handle
  {ce68fda2-bf9f-4b2b-9d4e-9896b327cf0f}, !- Name
  {110dd2a4-949e-4d52-87c2-a557bbb610cc}; !- HVAC Component

OS:Sizing:Zone,
  {2681350f-1bee-455d-a5f0-e71c67d1fec5}, !- Handle
  {110dd2a4-949e-4d52-87c2-a557bbb610cc}, !- Zone or ZoneList Name
  14,                                     !- Zone Cooling Design Supply Air Temperature {C}
  40,                                     !- Zone Heating Design Supply Air Temperature {C}
  0.0085,                                 !- Zone Cooling Design Supply Air Humidity Ratio {kg-H2O/kg-air}
  0.008,                                  !- Zone Heating Design Supply Air Humidity Ratio {kg-H2O/kg-air}
  ,                                       !- Zone Heating Sizing Factor
  ,                                       !- Zone Cooling Sizing Factor
  DesignDay,                              !- Cooling Design Air Flow Method
  ,                                       !- Cooling Design Air Flow Rate {m3/s}
  ,                                       !- Cooling Minimum Air Flow per Zone Floor Area {m3/s-m2}
  ,                                       !- Cooling Minimum Air Flow {m3/s}
  ,                                       !- Cooling Minimum Air Flow Fraction
  DesignDay,                              !- Heating Design Air Flow Method
  ,                                       !- Heating Design Air Flow Rate {m3/s}
  ,                                       !- Heating Maximum Air Flow per Zone Floor Area {m3/s-m2}
  ,                                       !- Heating Maximum Air Flow {m3/s}
  ,                                       !- Heating Maximum Air Flow Fraction
  ,                                       !- Design Zone Air Distribution Effectiveness in Cooling Mode
  ;                                       !- Design Zone Air Distribution Effectiveness in Heating Mode

OS:ZoneHVAC:EquipmentList,
  {43c4d632-0747-4848-9e83-71457322ec1f}, !- Handle
  {7e0d9e97-979b-41a1-92fd-4c4934f3455a}, !- Name
  {110dd2a4-949e-4d52-87c2-a557bbb610cc}; !- Thermal Zone

OS:Space,
  {e82d2021-3b7c-4d9e-bf25-5d4c57e7041d}, !- Handle
  FrontStairsFlr1,                        !- Name
  {ecbc15ca-a1d4-4093-84b7-ac6556075615}, !- Space Type Name
  ,                                       !- Default Construction Set Name
  ,                                       !- Default Schedule Set Name
  0,                                      !- Direction of Relative North {deg}
  0,                                      !- X Origin {m}
  0,                                      !- Y Origin {m}
  0,                                      !- Z Origin {m}
  {7adff9a6-0c94-405b-9504-70d2743635b3}, !- Building Story Name
  {110dd2a4-949e-4d52-87c2-a557bbb610cc}, !- Thermal Zone Name
  Yes,                                    !- Part of Total Floor Area
  ;                                       !- Design Specification Outdoor Air Object Name

OS:Surface,
  {79f8e690-d5ae-49b7-a7db-9bf2534ca654}, !- Handle
  P_FrontLoungeFlr1_10018_0_10016,        !- Name
  Wall,                                   !- Surface Type
  ,                                       !- Construction Name
  {a7111228-245a-4548-8d98-2a4f87050704}, !- Space Name
  Surface,                                !- Outside Boundary Condition
  {27de7fb8-c633-45ef-ac0d-b3c2d5344e22}, !- Outside Boundary Condition Object
  NoSun,                                  !- Sun Exposure
  NoWind,                                 !- Wind Exposure
  ,                                       !- View Factor to Ground
  ,                                       !- Number of Vertices
  19.8607, 8.279, 3.3528,                 !- X,Y,Z Vertex 1 {m}
  19.8607, 8.279, 0,                      !- X,Y,Z Vertex 2 {m}
  0.0487, 8.279, 0,                       !- X,Y,Z Vertex 3 {m}
  0.0487, 8.279, 3.3528;                  !- X,Y,Z Vertex 4 {m}

OS:ThermalZone,
  {c856d4e2-9aa5-403b-901d-302bb90c98db}, !- Handle
  FrontLoungeFlr1 Thermal Zone,           !- Name
  1,                                      !- Multiplier
  ,                                       !- Ceiling Height {m}
  ,                                       !- Volume {m3}
  ,                                       !- Floor Area {m2}
  ,                                       !- Zone Inside Convection Algorithm
  ,                                       !- Zone Outside Convection Algorithm
  ,                                       !- Zone Conditioning Equipment List Name
  {b2918cbb-0433-4437-83fb-991d905717c2}, !- Zone Air Inlet Port List
  {3f0083f1-f9a6-4f06-85ce-47d2a9cdec5b}, !- Zone Air Exhaust Port List
  {fecaf271-0434-4a17-91bf-111be6e319e1}, !- Zone Air Node Name
  ,                                       !- Zone Return Air Node Name
  ,                                       !- Primary Daylighting Control Name
  ,                                       !- Fraction of Zone Controlled by Primary Daylighting Control
  ,                                       !- Secondary Daylighting Control Name
  ,                                       !- Fraction of Zone Controlled by Secondary Daylighting Control
  ,                                       !- Illuminance Map Name
  ,                                       !- Group Rendering Name
  {74f5e117-5fbf-4be6-9ce9-b486f2ac2505}, !- Thermostat Name
  Yes;                                    !- Use Ideal Air Loads

OS:Node,
  {dbb21124-b06f-4037-a7ca-9671498dd1be}, !- Handle
  {992d0301-4c97-4d81-aecc-bb4b131a282b}, !- Name
  {fecaf271-0434-4a17-91bf-111be6e319e1}, !- Inlet Port
  ;                                       !- Outlet Port

OS:Connection,
  {fecaf271-0434-4a17-91bf-111be6e319e1}, !- Handle
  {4274d1e3-1a20-40b5-9751-4d10ac1fe7c8}, !- Name
  {c856d4e2-9aa5-403b-901d-302bb90c98db}, !- Source Object
  11,                                     !- Outlet Port
  {dbb21124-b06f-4037-a7ca-9671498dd1be}, !- Target Object
  2;                                      !- Inlet Port

OS:PortList,
  {b2918cbb-0433-4437-83fb-991d905717c2}, !- Handle
  {ee959c43-6e5c-4063-a1f8-3eb37b948b6c}, !- Name
  {c856d4e2-9aa5-403b-901d-302bb90c98db}; !- HVAC Component

OS:PortList,
  {3f0083f1-f9a6-4f06-85ce-47d2a9cdec5b}, !- Handle
  {476a3991-6104-464b-a728-cec8fe8d7bbd}, !- Name
  {c856d4e2-9aa5-403b-901d-302bb90c98db}; !- HVAC Component

OS:Sizing:Zone,
  {ddadd43b-e34c-40a6-aad4-97f0909f40b8}, !- Handle
  {c856d4e2-9aa5-403b-901d-302bb90c98db}, !- Zone or ZoneList Name
  14,                                     !- Zone Cooling Design Supply Air Temperature {C}
  40,                                     !- Zone Heating Design Supply Air Temperature {C}
  0.0085,                                 !- Zone Cooling Design Supply Air Humidity Ratio {kg-H2O/kg-air}
  0.008,                                  !- Zone Heating Design Supply Air Humidity Ratio {kg-H2O/kg-air}
  ,                                       !- Zone Heating Sizing Factor
  ,                                       !- Zone Cooling Sizing Factor
  DesignDay,                              !- Cooling Design Air Flow Method
  ,                                       !- Cooling Design Air Flow Rate {m3/s}
  ,                                       !- Cooling Minimum Air Flow per Zone Floor Area {m3/s-m2}
  ,                                       !- Cooling Minimum Air Flow {m3/s}
  ,                                       !- Cooling Minimum Air Flow Fraction
  DesignDay,                              !- Heating Design Air Flow Method
  ,                                       !- Heating Design Air Flow Rate {m3/s}
  ,                                       !- Heating Maximum Air Flow per Zone Floor Area {m3/s-m2}
  ,                                       !- Heating Maximum Air Flow {m3/s}
  ,                                       !- Heating Maximum Air Flow Fraction
  ,                                       !- Design Zone Air Distribution Effectiveness in Cooling Mode
  ;                                       !- Design Zone Air Distribution Effectiveness in Heating Mode

OS:ZoneHVAC:EquipmentList,
  {3314e234-1db1-4d88-a5f7-4fddd80617ae}, !- Handle
  {602798cd-04c9-4785-a0db-44a242c7a3b5}, !- Name
  {c856d4e2-9aa5-403b-901d-302bb90c98db}; !- Thermal Zone

OS:Space,
  {a7111228-245a-4548-8d98-2a4f87050704}, !- Handle
  FrontLoungeFlr1,                        !- Name
  {26cef406-1eb5-4358-9ca4-74396e31a210}, !- Space Type Name
  ,                                       !- Default Construction Set Name
  ,                                       !- Default Schedule Set Name
  0,                                      !- Direction of Relative North {deg}
  0,                                      !- X Origin {m}
  0,                                      !- Y Origin {m}
  0,                                      !- Z Origin {m}
  {7adff9a6-0c94-405b-9504-70d2743635b3}, !- Building Story Name
  {c856d4e2-9aa5-403b-901d-302bb90c98db}, !- Thermal Zone Name
  Yes,                                    !- Part of Total Floor Area
  ;                                       !- Design Specification Outdoor Air Object Name

OS:Surface,
  {8f2d1131-a047-4284-a23d-cc19ad5b119c}, !- Handle
  P_FrontOfficeFlr1_4_0_0,                !- Name
  Wall,                                   !- Surface Type
  ,                                       !- Construction Name
  {40bb2e02-b9fb-4bab-b65c-61cdaea5f310}, !- Space Name
  Surface,                                !- Outside Boundary Condition
  {7dee9bea-9f07-47b9-8330-a76899662f9a}, !- Outside Boundary Condition Object
  NoSun,                                  !- Sun Exposure
  NoWind,                                 !- Wind Exposure
  ,                                       !- View Factor to Ground
  ,                                       !- Number of Vertices
  4.0111, 18.3374, 3.3528,                !- X,Y,Z Vertex 1 {m}
  4.0111, 18.3374, 0,                     !- X,Y,Z Vertex 2 {m}
  4.0111, 10.1078, 0,                     !- X,Y,Z Vertex 3 {m}
  4.0111, 10.1078, 3.3528;                !- X,Y,Z Vertex 4 {m}

OS:ThermalZone,
  {6d3f653e-c62e-4a63-959b-588801ee189b}, !- Handle
  FrontOfficeFlr1 Thermal Zone,           !- Name
  1,                                      !- Multiplier
  ,                                       !- Ceiling Height {m}
  ,                                       !- Volume {m3}
  ,                                       !- Floor Area {m2}
  ,                                       !- Zone Inside Convection Algorithm
  ,                                       !- Zone Outside Convection Algorithm
  ,                                       !- Zone Conditioning Equipment List Name
  {7533edc1-cc50-4f82-b487-afefb2def54b}, !- Zone Air Inlet Port List
  {f8e46a1f-e131-485b-b94e-bd1f0ea4599a}, !- Zone Air Exhaust Port List
  {e64b4d41-5f55-4be6-a322-18c175405ef8}, !- Zone Air Node Name
  ,                                       !- Zone Return Air Node Name
  ,                                       !- Primary Daylighting Control Name
  ,                                       !- Fraction of Zone Controlled by Primary Daylighting Control
  ,                                       !- Secondary Daylighting Control Name
  ,                                       !- Fraction of Zone Controlled by Secondary Daylighting Control
  ,                                       !- Illuminance Map Name
  ,                                       !- Group Rendering Name
  {05b5489d-b339-443c-994b-dfa055ab326b}, !- Thermostat Name
  Yes;                                    !- Use Ideal Air Loads

OS:Node,
  {713ed0b5-804d-4728-8f18-d1c0378255c6}, !- Handle
  {02878d66-6dd5-407d-8080-cb95bd5fcc2d}, !- Name
  {e64b4d41-5f55-4be6-a322-18c175405ef8}, !- Inlet Port
  ;                                       !- Outlet Port

OS:Connection,
  {e64b4d41-5f55-4be6-a322-18c175405ef8}, !- Handle
  {679c7d3b-ea4e-4b3d-8de4-2b1a6fb34634}, !- Name
  {6d3f653e-c62e-4a63-959b-588801ee189b}, !- Source Object
  11,                                     !- Outlet Port
  {713ed0b5-804d-4728-8f18-d1c0378255c6}, !- Target Object
  2;                                      !- Inlet Port

OS:PortList,
  {7533edc1-cc50-4f82-b487-afefb2def54b}, !- Handle
  {18b1e546-d409-45b3-bb79-bfa9e8d0f5b0}, !- Name
  {6d3f653e-c62e-4a63-959b-588801ee189b}; !- HVAC Component

OS:PortList,
  {f8e46a1f-e131-485b-b94e-bd1f0ea4599a}, !- Handle
  {c83412da-fd29-462f-a3bb-c59b2d5f06ba}, !- Name
  {6d3f653e-c62e-4a63-959b-588801ee189b}; !- HVAC Component

OS:Sizing:Zone,
  {43b9cdc7-9152-425a-b4a5-ba17e4089a95}, !- Handle
  {6d3f653e-c62e-4a63-959b-588801ee189b}, !- Zone or ZoneList Name
  14,                                     !- Zone Cooling Design Supply Air Temperature {C}
  40,                                     !- Zone Heating Design Supply Air Temperature {C}
  0.0085,                                 !- Zone Cooling Design Supply Air Humidity Ratio {kg-H2O/kg-air}
  0.008,                                  !- Zone Heating Design Supply Air Humidity Ratio {kg-H2O/kg-air}
  ,                                       !- Zone Heating Sizing Factor
  ,                                       !- Zone Cooling Sizing Factor
  DesignDay,                              !- Cooling Design Air Flow Method
  ,                                       !- Cooling Design Air Flow Rate {m3/s}
  ,                                       !- Cooling Minimum Air Flow per Zone Floor Area {m3/s-m2}
  ,                                       !- Cooling Minimum Air Flow {m3/s}
  ,                                       !- Cooling Minimum Air Flow Fraction
  DesignDay,                              !- Heating Design Air Flow Method
  ,                                       !- Heating Design Air Flow Rate {m3/s}
  ,                                       !- Heating Maximum Air Flow per Zone Floor Area {m3/s-m2}
  ,                                       !- Heating Maximum Air Flow {m3/s}
  ,                                       !- Heating Maximum Air Flow Fraction
  ,                                       !- Design Zone Air Distribution Effectiveness in Cooling Mode
  ;                                       !- Design Zone Air Distribution Effectiveness in Heating Mode

OS:ZoneHVAC:EquipmentList,
  {d7bf8702-f2c3-45a2-9aa5-3087e8a3cecd}, !- Handle
  {bd18b25d-2436-4e4a-8df9-4321ab2dfc14}, !- Name
  {6d3f653e-c62e-4a63-959b-588801ee189b}; !- Thermal Zone

OS:Space,
  {40bb2e02-b9fb-4bab-b65c-61cdaea5f310}, !- Handle
  FrontOfficeFlr1,                        !- Name
  {772ebc54-ec61-4cd9-81db-eba1d854a4bf}, !- Space Type Name
  ,                                       !- Default Construction Set Name
  ,                                       !- Default Schedule Set Name
  0,                                      !- Direction of Relative North {deg}
  0,                                      !- X Origin {m}
  0,                                      !- Y Origin {m}
  0,                                      !- Z Origin {m}
  {7adff9a6-0c94-405b-9504-70d2743635b3}, !- Building Story Name
  {6d3f653e-c62e-4a63-959b-588801ee189b}, !- Thermal Zone Name
  Yes,                                    !- Part of Total Floor Area
  ;                                       !- Design Specification Outdoor Air Object Name

OS:Curve:Quadratic,
  {dfa82ad2-e621-4269-b616-1ac38c66ee4a}, !- Handle
  CoolCStandard10Ton_EIRFFF,              !- Name
  1.2055,                                 !- Coefficient1 Constant
  -0.32953,                               !- Coefficient2 x
  0.12308,                                !- Coefficient3 x**2
  0.75918,                                !- Minimum Value of x {BasedOnField A2}
  1.13877;                                !- Maximum Value of x {BasedOnField A2}

OS:ThermalZone,
  {bfbc3731-8f6e-4aee-8d3c-c6959e9ef62b}, !- Handle
  GuestRoom414 Thermal Zone,              !- Name
  1,                                      !- Multiplier
  ,                                       !- Ceiling Height {m}
  ,                                       !- Volume {m3}
  ,                                       !- Floor Area {m2}
  ,                                       !- Zone Inside Convection Algorithm
  ,                                       !- Zone Outside Convection Algorithm
  ,                                       !- Zone Conditioning Equipment List Name
  {ef5dfcb2-0b19-467b-bec3-9baa474cb0a2}, !- Zone Air Inlet Port List
  {c57fc604-dd1b-49c2-9141-3becae3227ca}, !- Zone Air Exhaust Port List
  {673e877b-2607-4e57-8541-1cb4bfbbc485}, !- Zone Air Node Name
  ,                                       !- Zone Return Air Node Name
  ,                                       !- Primary Daylighting Control Name
  ,                                       !- Fraction of Zone Controlled by Primary Daylighting Control
  ,                                       !- Secondary Daylighting Control Name
  ,                                       !- Fraction of Zone Controlled by Secondary Daylighting Control
  ,                                       !- Illuminance Map Name
  ,                                       !- Group Rendering Name
  {40e1e5fd-114e-434f-8874-e6d4ddbdc18b}, !- Thermostat Name
  Yes;                                    !- Use Ideal Air Loads

OS:Node,
  {9d8decc2-21db-4501-8244-5a7ad5626544}, !- Handle
  {f1c1a38e-272c-4369-9840-1bafc16679bd}, !- Name
  {673e877b-2607-4e57-8541-1cb4bfbbc485}, !- Inlet Port
  ;                                       !- Outlet Port

OS:Connection,
  {673e877b-2607-4e57-8541-1cb4bfbbc485}, !- Handle
  {597695cd-de70-4f7c-be5c-747306c43d24}, !- Name
  {bfbc3731-8f6e-4aee-8d3c-c6959e9ef62b}, !- Source Object
  11,                                     !- Outlet Port
  {9d8decc2-21db-4501-8244-5a7ad5626544}, !- Target Object
  2;                                      !- Inlet Port

OS:PortList,
  {ef5dfcb2-0b19-467b-bec3-9baa474cb0a2}, !- Handle
  {a0de2286-6734-480c-a1d2-d815da642fcc}, !- Name
  {bfbc3731-8f6e-4aee-8d3c-c6959e9ef62b}; !- HVAC Component

OS:PortList,
  {c57fc604-dd1b-49c2-9141-3becae3227ca}, !- Handle
  {9cae95a6-f66d-40b6-9e88-53e83693a9fb}, !- Name
  {bfbc3731-8f6e-4aee-8d3c-c6959e9ef62b}; !- HVAC Component

OS:Sizing:Zone,
  {84e391d6-5b2d-4af9-ae3f-0c5bcb758f1a}, !- Handle
  {bfbc3731-8f6e-4aee-8d3c-c6959e9ef62b}, !- Zone or ZoneList Name
  14,                                     !- Zone Cooling Design Supply Air Temperature {C}
  40,                                     !- Zone Heating Design Supply Air Temperature {C}
  0.0085,                                 !- Zone Cooling Design Supply Air Humidity Ratio {kg-H2O/kg-air}
  0.008,                                  !- Zone Heating Design Supply Air Humidity Ratio {kg-H2O/kg-air}
  ,                                       !- Zone Heating Sizing Factor
  ,                                       !- Zone Cooling Sizing Factor
  DesignDay,                              !- Cooling Design Air Flow Method
  ,                                       !- Cooling Design Air Flow Rate {m3/s}
  ,                                       !- Cooling Minimum Air Flow per Zone Floor Area {m3/s-m2}
  ,                                       !- Cooling Minimum Air Flow {m3/s}
  ,                                       !- Cooling Minimum Air Flow Fraction
  DesignDay,                              !- Heating Design Air Flow Method