
OS:Version,
  {e4986c0b-15a5-44c2-a232-c9c0dcf090be}, !- Handle
  1.6.0;                                  !- Version Identifier

OS:Site,
  {d4044dcf-086d-415d-be1c-e1cc43c1ac91}, !- Handle
  Calgary Int'l_AB_CAN,                   !- Name
  51.12,                                  !- Latitude {deg}
  -114.02,                                !- Longitude {deg}
  -7,                                     !- Time Zone {hr}
  1084,                                   !- Elevation {m}
  City;                                   !- Terrain

OS:SimulationControl,
  {c6994b76-07a1-4e1c-af47-cd3d2b84eb1d}, !- Handle
  Yes,                                    !- Do Zone Sizing Calculation
  Yes,                                    !- Do System Sizing Calculation
  Yes,                                    !- Do Plant Sizing Calculation
  No,                                     !- Run Simulation for Sizing Periods
  Yes,                                    !- Run Simulation for Weather File Run Periods
  0.04,                                   !- Loads Convergence Tolerance Value
  0.2,                                    !- Temperature Convergence Tolerance Value {deltaC}
  FullInteriorAndExterior,                !- Solar Distribution
  25,                                     !- Maximum Number of Warmup Days
  6;                                      !- Minimum Number of Warmup Days

OS:ThermalZone,
  {bca11096-678b-47f4-84c6-71aeadcd337e}, !- Handle
  Perimeter_ZN_1 Thermal Zone,            !- Name
  1,                                      !- Multiplier
  ,                                       !- Ceiling Height {m}
  ,                                       !- Volume {m3}
  ,                                       !- Floor Area {m2}
  ,                                       !- Zone Inside Convection Algorithm
  ,                                       !- Zone Outside Convection Algorithm
  ,                                       !- Zone Conditioning Equipment List Name
  {10c89bde-f108-457f-9ba2-376abab759d8}, !- Zone Air Inlet Port List
  {ef1edfc0-b3ec-4e2f-81da-3f833533f980}, !- Zone Air Exhaust Port List
  {ecc05bcd-6510-46ab-824d-c0c9f334fa0a}, !- Zone Air Node Name
  ,                                       !- Zone Return Air Node Name
  ,                                       !- Primary Daylighting Control Name
  ,                                       !- Fraction of Zone Controlled by Primary Daylighting Control
  ,                                       !- Secondary Daylighting Control Name
  ,                                       !- Fraction of Zone Controlled by Secondary Daylighting Control
  ,                                       !- Illuminance Map Name
  ,                                       !- Group Rendering Name
  {9a01c5ae-e1ac-4f56-9fd2-94e8ca36a88f}, !- Thermostat Name
  Yes;                                    !- Use Ideal Air Loads

OS:Node,
  {c1c7eee5-b534-47d2-905f-91b8cc0381a1}, !- Handle
  {2a3079bd-e5cb-4a0a-a8a6-12e47d8fb1e4}, !- Name
  {ecc05bcd-6510-46ab-824d-c0c9f334fa0a}, !- Inlet Port
  ;                                       !- Outlet Port

OS:Connection,
  {ecc05bcd-6510-46ab-824d-c0c9f334fa0a}, !- Handle
  {51f2a7ca-656b-4c08-ba02-316f814c8526}, !- Name
  {bca11096-678b-47f4-84c6-71aeadcd337e}, !- Source Object
  11,                                     !- Outlet Port
  {c1c7eee5-b534-47d2-905f-91b8cc0381a1}, !- Target Object
  2;                                      !- Inlet Port

OS:PortList,
  {10c89bde-f108-457f-9ba2-376abab759d8}, !- Handle
  {ea55b838-f305-4a75-8f13-ba764b5dc9e4}, !- Name
  {bca11096-678b-47f4-84c6-71aeadcd337e}; !- HVAC Component

OS:PortList,
  {ef1edfc0-b3ec-4e2f-81da-3f833533f980}, !- Handle
  {719f0bc5-ce39-4dba-a714-ef271547d764}, !- Name
  {bca11096-678b-47f4-84c6-71aeadcd337e}; !- HVAC Component

OS:Sizing:Zone,
  {ba386c6e-548b-4ddd-9f8e-51c96c2f830e}, !- Handle
  {bca11096-678b-47f4-84c6-71aeadcd337e}, !- Zone or ZoneList Name
  14,                                     !- Zone Cooling Design Supply Air Temperature {C}
  40,                                     !- Zone Heating Design Supply Air Temperature {C}
  0.0085,                                 !- Zone Cooling Design Supply Air Humidity Ratio {kg-H2O/kg-air}
  0.008,                                  !- Zone Heating Design Supply Air Humidity Ratio {kg-H2O/kg-air}
  ,                                       !- Zone Heating Sizing Factor
  ,                                       !- Zone Cooling Sizing Factor
  DesignDay,                              !- Cooling Design Air Flow Method
  ,                                       !- Cooling Design Air Flow Rate {m3/s}
  ,                                       !- Cooling Minimum Air Flow per Zone Floor Area {m3/s-m2}
  ,                                       !- Cooling Minimum Air Flow {m3/s}
  ,                                       !- Cooling Minimum Air Flow Fraction
  DesignDay,                              !- Heating Design Air Flow Method
  ,                                       !- Heating Design Air Flow Rate {m3/s}
  ,                                       !- Heating Maximum Air Flow per Zone Floor Area {m3/s-m2}
  ,                                       !- Heating Maximum Air Flow {m3/s}
  ,                                       !- Heating Maximum Air Flow Fraction
  ,                                       !- Design Zone Air Distribution Effectiveness in Cooling Mode
  ;                                       !- Design Zone Air Distribution Effectiveness in Heating Mode

OS:ZoneHVAC:EquipmentList,
  {78738abe-24c4-4489-97fe-12642534673c}, !- Handle
  {3c1b9355-9b0d-4bb0-8f40-55a1bad24daa}, !- Name
  {bca11096-678b-47f4-84c6-71aeadcd337e}; !- Thermal Zone

OS:Space,
  {92c89684-e557-46cb-b597-9473df5a2edf}, !- Handle
  Perimeter_ZN_1,                         !- Name
  {6ad603c3-f9a3-455e-8b07-3265062cbbb8}, !- Space Type Name
  ,                                       !- Default Construction Set Name
  ,                                       !- Default Schedule Set Name
  0,                                      !- Direction of Relative North {deg}
  0,                                      !- X Origin {m}
  0,                                      !- Y Origin {m}
  0,                                      !- Z Origin {m}
  {70e313c4-ec75-4708-9c80-f7694c951104}, !- Building Story Name
  {bca11096-678b-47f4-84c6-71aeadcd337e}, !- Thermal Zone Name
  Yes,                                    !- Part of Total Floor Area
  ;                                       !- Design Specification Outdoor Air Object Name

OS:RunPeriod,
  {f75ed28d-152a-41c2-bc45-99e96d51a7f5}, !- Handle
  Run Period 1,                           !- Name
  1,                                      !- Begin Month
  1,                                      !- Begin Day of Month
  12,                                     !- End Month
  31,                                     !- End Day of Month
  No,                                     !- Use Weather File Holidays and Special Days
  No,                                     !- Use Weather File Daylight Saving Period
  No,                                     !- Apply Weekend Holiday Rule
  Yes,                                    !- Use Weather File Rain Indicators
  Yes,                                    !- Use Weather File Snow Indicators
  1;                                      !- Number of Times Runperiod to be Repeated

OS:YearDescription,
  {84876da7-fe53-49d8-a53b-0cb04f766f2f}, !- Handle
  ,                                       !- Calendar Year
  Sunday;                                 !- Day of Week for Start Day

OS:Surface,
  {81dfcbb9-bf8e-49c9-8b2c-456f582b60bb}, !- Handle
  Perimeter_ZN_1_wall_south,              !- Name
  Wall,                                   !- Surface Type
  ,                                       !- Construction Name
  {92c89684-e557-46cb-b597-9473df5a2edf}, !- Space Name
  Outdoors,                               !- Outside Boundary Condition
  ,                                       !- Outside Boundary Condition Object
  SunExposed,                             !- Sun Exposure
  WindExposed,                            !- Wind Exposure
  ,                                       !- View Factor to Ground
  ,                                       !- Number of Vertices
  0, 0, 3.05,                             !- X,Y,Z Vertex 1 {m}
  0, 0, 0,                                !- X,Y,Z Vertex 2 {m}
  27.69, 0, 0,                            !- X,Y,Z Vertex 3 {m}
  27.69, 0, 3.05;                         !- X,Y,Z Vertex 4 {m}

OS:Meter,
  {701b1262-e44c-4a23-ba57-780c5161cc56}, !- Handle
  ExteriorLights:Electricity,             !- Name
  hourly,                                 !- Reporting Frequency
  False,                                  !- Meter File Only
  False;                                  !- Cumulative

OS:Surface,
  {462a0e14-2801-469f-8d68-4d3fd6e5bbda}, !- Handle
  Perimeter_ZN_3_wall_north,              !- Name
  Wall,                                   !- Surface Type
  ,                                       !- Construction Name
  {2610df55-d42c-405d-846b-f555d0987f3f}, !- Space Name
  Outdoors,                               !- Outside Boundary Condition
  ,                                       !- Outside Boundary Condition Object
  SunExposed,                             !- Sun Exposure
  WindExposed,                            !- Wind Exposure
  ,                                       !- View Factor to Ground
  ,                                       !- Number of Vertices
  27.69, 18.46, 3.05,                     !- X,Y,Z Vertex 1 {m}
  27.69, 18.46, 0,                        !- X,Y,Z Vertex 2 {m}
  0, 18.46, 0,                            !- X,Y,Z Vertex 3 {m}
  0, 18.46, 3.05;                         !- X,Y,Z Vertex 4 {m}

OS:ThermalZone,
  {06a6ac39-6645-480f-8580-5fc2332e0ef4}, !- Handle
  Perimeter_ZN_3 Thermal Zone,            !- Name
  1,                                      !- Multiplier
  ,                                       !- Ceiling Height {m}
  ,                                       !- Volume {m3}
  ,                                       !- Floor Area {m2}
  ,                                       !- Zone Inside Convection Algorithm
  ,                                       !- Zone Outside Convection Algorithm
  ,                                       !- Zone Conditioning Equipment List Name
  {da72fcfc-a03a-40d3-b42f-6ac03e33855a}, !- Zone Air Inlet Port List
  {14bab7d1-17fc-4613-b2cf-bfab95de0892}, !- Zone Air Exhaust Port List
  {9e285d6b-09f6-4172-84b9-0b47bf3caaa4}, !- Zone Air Node Name
  ,                                       !- Zone Return Air Node Name
  ,                                       !- Primary Daylighting Control Name
  ,                                       !- Fraction of Zone Controlled by Primary Daylighting Control
  ,                                       !- Secondary Daylighting Control Name
  ,                                       !- Fraction of Zone Controlled by Secondary Daylighting Control
  ,                                       !- Illuminance Map Name
  ,                                       !- Group Rendering Name
  {9a01c5ae-e1ac-4f56-9fd2-94e8ca36a88f}, !- Thermostat Name
  Yes;                                    !- Use Ideal Air Loads

OS:Node,
  {069dbdd6-4c46-48ae-82a0-3cf2e06ed654}, !- Handle
  {3288acee-1ae6-4923-9660-5d83a8768586}, !- Name
  {9e285d6b-09f6-4172-84b9-0b47bf3caaa4}, !- Inlet Port
  ;                                       !- Outlet Port

OS:Connection,
  {9e285d6b-09f6-4172-84b9-0b47bf3caaa4}, !- Handle
  {55d1de41-4745-4b36-9550-7652b710faed}, !- Name
  {06a6ac39-6645-480f-8580-5fc2332e0ef4}, !- Source Object
  11,                                     !- Outlet Port
  {069dbdd6-4c46-48ae-82a0-3cf2e06ed654}, !- Target Object
  2;                                      !- Inlet Port

OS:PortList,
  {da72fcfc-a03a-40d3-b42f-6ac03e33855a}, !- Handle
  {788c1e7d-7c1d-4857-948b-568ed5abef4d}, !- Name
  {06a6ac39-6645-480f-8580-5fc2332e0ef4}; !- HVAC Component

OS:PortList,
  {14bab7d1-17fc-4613-b2cf-bfab95de0892}, !- Handle
  {7e438ab4-3695-4c1e-a2af-7a973e29977a}, !- Name
  {06a6ac39-6645-480f-8580-5fc2332e0ef4}; !- HVAC Component

OS:Sizing:Zone,
  {bc5d94fa-615c-483c-986f-d9c625c39da3}, !- Handle
  {06a6ac39-6645-480f-8580-5fc2332e0ef4}, !- Zone or ZoneList Name
  14,                                     !- Zone Cooling Design Supply Air Temperature {C}
  40,                                     !- Zone Heating Design Supply Air Temperature {C}
  0.0085,                                 !- Zone Cooling Design Supply Air Humidity Ratio {kg-H2O/kg-air}
  0.008,                                  !- Zone Heating Design Supply Air Humidity Ratio {kg-H2O/kg-air}
  ,                                       !- Zone Heating Sizing Factor
  ,                                       !- Zone Cooling Sizing Factor
  DesignDay,                              !- Cooling Design Air Flow Method
  ,                                       !- Cooling Design Air Flow Rate {m3/s}
  ,                                       !- Cooling Minimum Air Flow per Zone Floor Area {m3/s-m2}
  ,                                       !- Cooling Minimum Air Flow {m3/s}
  ,                                       !- Cooling Minimum Air Flow Fraction
  DesignDay,                              !- Heating Design Air Flow Method
  ,                                       !- Heating Design Air Flow Rate {m3/s}
  ,                                       !- Heating Maximum Air Flow per Zone Floor Area {m3/s-m2}
  ,                                       !- Heating Maximum Air Flow {m3/s}
  ,                                       !- Heating Maximum Air Flow Fraction
  ,                                       !- Design Zone Air Distribution Effectiveness in Cooling Mode
  ;                                       !- Design Zone Air Distribution Effectiveness in Heating Mode

OS:ZoneHVAC:EquipmentList,
  {eec18d55-4e29-46a6-8edb-15039ddf3357}, !- Handle
  {5c80abbf-db44-4e7b-8b05-30c332031427}, !- Name
  {06a6ac39-6645-480f-8580-5fc2332e0ef4}; !- Thermal Zone

OS:Space,
  {2610df55-d42c-405d-846b-f555d0987f3f}, !- Handle
  Perimeter_ZN_3,                         !- Name
  {6ad603c3-f9a3-455e-8b07-3265062cbbb8}, !- Space Type Name
  ,                                       !- Default Construction Set Name
  ,                                       !- Default Schedule Set Name
  0,                                      !- Direction of Relative North {deg}
  0,                                      !- X Origin {m}
  0,                                      !- Y Origin {m}
  0,                                      !- Z Origin {m}
  {70e313c4-ec75-4708-9c80-f7694c951104}, !- Building Story Name
  {06a6ac39-6645-480f-8580-5fc2332e0ef4}, !- Thermal Zone Name
  Yes,                                    !- Part of Total Floor Area
  ;                                       !- Design Specification Outdoor Air Object Name

OS:Meter,
  {5d4db8a8-afdc-4843-94f2-fe6311758698}, !- Handle
  InteriorEquipment:Electricity,          !- Name
  hourly,                                 !- Reporting Frequency
  False,                                  !- Meter File Only
  False;                                  !- Cumulative

OS:ThermalZone,
  {0f7d6e00-82b3-4ef2-94d5-fdeee4e2f618}, !- Handle
  Perimeter_ZN_2 Thermal Zone,            !- Name
  1,                                      !- Multiplier
  ,                                       !- Ceiling Height {m}
  ,                                       !- Volume {m3}
  ,                                       !- Floor Area {m2}
  ,                                       !- Zone Inside Convection Algorithm
  ,                                       !- Zone Outside Convection Algorithm
  ,                                       !- Zone Conditioning Equipment List Name
  {5ec616db-f725-4abb-aa23-3c359421c37d}, !- Zone Air Inlet Port List
  {9b8847f7-206e-4567-9926-6433f06678ae}, !- Zone Air Exhaust Port List
  {214309a0-4799-4097-aaf9-76ed8e7fda2d}, !- Zone Air Node Name
  ,                                       !- Zone Return Air Node Name
  ,                                       !- Primary Daylighting Control Name
  ,                                       !- Fraction of Zone Controlled by Primary Daylighting Control
  ,                                       !- Secondary Daylighting Control Name
  ,                                       !- Fraction of Zone Controlled by Secondary Daylighting Control
  ,                                       !- Illuminance Map Name
  ,                                       !- Group Rendering Name
  {9a01c5ae-e1ac-4f56-9fd2-94e8ca36a88f}, !- Thermostat Name
  Yes;                                    !- Use Ideal Air Loads

OS:Node,
  {6a85c394-20ff-4363-8d40-50c7dbbfa23d}, !- Handle
  {577e9624-6567-4885-b0dc-a0dca004ad6a}, !- Name
  {214309a0-4799-4097-aaf9-76ed8e7fda2d}, !- Inlet Port
  ;                                       !- Outlet Port

OS:Connection,
  {214309a0-4799-4097-aaf9-76ed8e7fda2d}, !- Handle
  {8b699f0b-d2ed-4227-8522-9d92279d6759}, !- Name
  {0f7d6e00-82b3-4ef2-94d5-fdeee4e2f618}, !- Source Object
  11,                                     !- Outlet Port
  {6a85c394-20ff-4363-8d40-50c7dbbfa23d}, !- Target Object
  2;                                      !- Inlet Port

OS:PortList,
  {5ec616db-f725-4abb-aa23-3c359421c37d}, !- Handle
  {e0933ca6-95f2-4035-93b8-6a4963561dc8}, !- Name
  {0f7d6e00-82b3-4ef2-94d5-fdeee4e2f618}; !- HVAC Component

OS:PortList,
  {9b8847f7-206e-4567-9926-6433f06678ae}, !- Handle
  {c0039e29-81b1-425e-95d1-d1f94408b7eb}, !- Name
  {0f7d6e00-82b3-4ef2-94d5-fdeee4e2f618}; !- HVAC Component

OS:Sizing:Zone,
  {4a1fa53d-7f6f-4f5b-a7e8-33fcdc166e75}, !- Handle
  {0f7d6e00-82b3-4ef2-94d5-fdeee4e2f618}, !- Zone or ZoneList Name
  14,                                     !- Zone Cooling Design Supply Air Temperature {C}
  40,                                     !- Zone Heating Design Supply Air Temperature {C}
  0.0085,                                 !- Zone Cooling Design Supply Air Humidity Ratio {kg-H2O/kg-air}
  0.008,                                  !- Zone Heating Design Supply Air Humidity Ratio {kg-H2O/kg-air}
  ,                                       !- Zone Heating Sizing Factor
  ,                                       !- Zone Cooling Sizing Factor
  DesignDay,                              !- Cooling Design Air Flow Method
  ,                                       !- Cooling Design Air Flow Rate {m3/s}
  ,                                       !- Cooling Minimum Air Flow per Zone Floor Area {m3/s-m2}
  ,                                       !- Cooling Minimum Air Flow {m3/s}
  ,                                       !- Cooling Minimum Air Flow Fraction
  DesignDay,                              !- Heating Design Air Flow Method
  ,                                       !- Heating Design Air Flow Rate {m3/s}
  ,                                       !- Heating Maximum Air Flow per Zone Floor Area {m3/s-m2}
  ,                                       !- Heating Maximum Air Flow {m3/s}
  ,                                       !- Heating Maximum Air Flow Fraction
  ,                                       !- Design Zone Air Distribution Effectiveness in Cooling Mode
  ;                                       !- Design Zone Air Distribution Effectiveness in Heating Mode

OS:ZoneHVAC:EquipmentList,
  {0eb62e23-50aa-4cce-aed6-6c860d5bd4d1}, !- Handle
  {7d6e43d8-6ff8-4f5d-80dd-22a2dc3db670}, !- Name
  {0f7d6e00-82b3-4ef2-94d5-fdeee4e2f618}; !- Thermal Zone

OS:Space,
  {9f1653d6-1f64-4d64-a7d3-141a2536ba1b}, !- Handle
  Perimeter_ZN_2,                         !- Name
  {6ad603c3-f9a3-455e-8b07-3265062cbbb8}, !- Space Type Name
  ,                                       !- Default Construction Set Name
  ,                                       !- Default Schedule Set Name
  0,                                      !- Direction of Relative North {deg}
  0,                                      !- X Origin {m}
  0,                                      !- Y Origin {m}
  0,                                      !- Z Origin {m}
  {70e313c4-ec75-4708-9c80-f7694c951104}, !- Building Story Name
  {0f7d6e00-82b3-4ef2-94d5-fdeee4e2f618}, !- Thermal Zone Name
  Yes,                                    !- Part of Total Floor Area
  ;                                       !- Design Specification Outdoor Air Object Name

OS:Meter,
  {dcc0ec93-4536-41f8-8888-48ded4ef3712}, !- Handle
  Gas:Facility,                           !- Name
  hourly,                                 !- Reporting Frequency
  False,                                  !- Meter File Only
  False;                                  !- Cumulative

OS:Surface,
  {95dc9a1c-3bb2-4c0c-b3f9-8b982a2b5d58}, !- Handle
  Core_ZN_wall_south,                     !- Name
  Wall,                                   !- Surface Type
  ,                                       !- Construction Name
  {70e0dedb-2323-4d72-a63a-1d948b0ce918}, !- Space Name
  Surface,                                !- Outside Boundary Condition
  {ccf14b5b-ab08-443b-b445-0f9c1997146f}, !- Outside Boundary Condition Object
  NoSun,                                  !- Sun Exposure
  NoWind,                                 !- Wind Exposure
  ,                                       !- View Factor to Ground
  ,                                       !- Number of Vertices
  5, 5, 3.05,                             !- X,Y,Z Vertex 1 {m}
  5, 5, 0,                                !- X,Y,Z Vertex 2 {m}
  22.69, 5, 0,                            !- X,Y,Z Vertex 3 {m}
  22.69, 5, 3.05;                         !- X,Y,Z Vertex 4 {m}

OS:ThermalZone,
  {a57a232c-df26-4fca-ac91-8a98a19fdcf6}, !- Handle
  Core_ZN Thermal Zone,                   !- Name
  1,                                      !- Multiplier
  ,                                       !- Ceiling Height {m}
  ,                                       !- Volume {m3}
  ,                                       !- Floor Area {m2}
  ,                                       !- Zone Inside Convection Algorithm
  ,                                       !- Zone Outside Convection Algorithm
  ,                                       !- Zone Conditioning Equipment List Name
  {56e6473c-c2f8-4683-973c-1e6fed1f1ce5}, !- Zone Air Inlet Port List
  {895d6466-68b6-4cb4-8a07-1f5aff43f60d}, !- Zone Air Exhaust Port List
  {130d13bb-cfc1-404b-98ff-b32e4d6f1c0c}, !- Zone Air Node Name
  ,                                       !- Zone Return Air Node Name
  ,                                       !- Primary Daylighting Control Name
  ,                                       !- Fraction of Zone Controlled by Primary Daylighting Control
  ,                                       !- Secondary Daylighting Control Name
  ,                                       !- Fraction of Zone Controlled by Secondary Daylighting Control
  ,                                       !- Illuminance Map Name
  ,                                       !- Group Rendering Name
  {9a01c5ae-e1ac-4f56-9fd2-94e8ca36a88f}, !- Thermostat Name
  Yes;                                    !- Use Ideal Air Loads

OS:Node,
  {534d838f-d582-43de-9a92-6dea02fc88d4}, !- Handle
  {8481bbeb-820d-4313-96fa-2124371f4d2f}, !- Name
  {130d13bb-cfc1-404b-98ff-b32e4d6f1c0c}, !- Inlet Port
  ;                                       !- Outlet Port

OS:Connection,
  {130d13bb-cfc1-404b-98ff-b32e4d6f1c0c}, !- Handle
  {db6209c7-fe26-4d0b-9b57-8d71730c9498}, !- Name
  {a57a232c-df26-4fca-ac91-8a98a19fdcf6}, !- Source Object
  11,                                     !- Outlet Port
  {534d838f-d582-43de-9a92-6dea02fc88d4}, !- Target Object
  2;                                      !- Inlet Port

OS:PortList,
  {56e6473c-c2f8-4683-973c-1e6fed1f1ce5}, !- Handle
  {037cf751-c8aa-484f-b78e-627b1fb3b1a1}, !- Name
  {a57a232c-df26-4fca-ac91-8a98a19fdcf6}; !- HVAC Component

OS:PortList,
  {895d6466-68b6-4cb4-8a07-1f5aff43f60d}, !- Handle
  {2a68889c-25e3-4289-8e10-4a613ddfa183}, !- Name
  {a57a232c-df26-4fca-ac91-8a98a19fdcf6}; !- HVAC Component

OS:Sizing:Zone,
  {0574de77-9317-4b8c-bde4-1bb41b2b4b41}, !- Handle
  {a57a232c-df26-4fca-ac91-8a98a19fdcf6}, !- Zone or ZoneList Name
  14,                                     !- Zone Cooling Design Supply Air Temperature {C}
  40,                                     !- Zone Heating Design Supply Air Temperature {C}
  0.0085,                                 !- Zone Cooling Design Supply Air Humidity Ratio {kg-H2O/kg-air}
  0.008,                                  !- Zone Heating Design Supply Air Humidity Ratio {kg-H2O/kg-air}
  ,                                       !- Zone Heating Sizing Factor
  ,                                       !- Zone Cooling Sizing Factor
  DesignDay,                              !- Cooling Design Air Flow Method
  ,                                       !- Cooling Design Air Flow Rate {m3/s}
  ,                                       !- Cooling Minimum Air Flow per Zone Floor Area {m3/s-m2}
  ,                                       !- Cooling Minimum Air Flow {m3/s}
  ,                                       !- Cooling Minimum Air Flow Fraction
  DesignDay,                              !- Heating Design Air Flow Method
  ,                                       !- Heating Design Air Flow Rate {m3/s}
  ,                                       !- Heating Maximum Air Flow per Zone Floor Area {m3/s-m2}
  ,                                       !- Heating Maximum Air Flow {m3/s}
  ,                                       !- Heating Maximum Air Flow Fraction
  ,                                       !- Design Zone Air Distribution Effectiveness in Cooling Mode
  ;                                       !- Design Zone Air Distribution Effectiveness in Heating Mode

OS:ZoneHVAC:EquipmentList,
  {55c7e54d-83bd-4eaf-ad72-9ae7b818bda8}, !- Handle
  {de121c77-b10e-43e1-862d-868f5f6b236d}, !- Name
  {a57a232c-df26-4fca-ac91-8a98a19fdcf6}; !- Thermal Zone

OS:Space,
  {70e0dedb-2323-4d72-a63a-1d948b0ce918}, !- Handle
  Core_ZN,                                !- Name
  {6ad603c3-f9a3-455e-8b07-3265062cbbb8}, !- Space Type Name
  ,                                       !- Default Construction Set Name
  ,                                       !- Default Schedule Set Name
  0,                                      !- Direction of Relative North {deg}
  0,                                      !- X Origin {m}
  0,                                      !- Y Origin {m}
  0,                                      !- Z Origin {m}
  {70e313c4-ec75-4708-9c80-f7694c951104}, !- Building Story Name
  {a57a232c-df26-4fca-ac91-8a98a19fdcf6}, !- Thermal Zone Name
  Yes,                                    !- Part of Total Floor Area
  ;                                       !- Design Specification Outdoor Air Object Name

OS:Meter,
  {e08becb0-f393-4491-b43a-6abd90927950}, !- Handle
  InteriorEquipment:Gas,                  !- Name
  hourly,                                 !- Reporting Frequency
  False,                                  !- Meter File Only
  False;                                  !- Cumulative

OS:Surface,
  {e9ab4682-e7f0-4cd5-930c-03ff0c17a451}, !- Handle
  Core_ZN_wall_north,                     !- Name
  Wall,                                   !- Surface Type
  ,                                       !- Construction Name
  {70e0dedb-2323-4d72-a63a-1d948b0ce918}, !- Space Name
  Surface,                                !- Outside Boundary Condition
  {04fefbe8-c5cd-4fa5-9e63-84aff629f2b5}, !- Outside Boundary Condition Object
  NoSun,                                  !- Sun Exposure
  NoWind,                                 !- Wind Exposure
  ,                                       !- View Factor to Ground
  ,                                       !- Number of Vertices
  22.69, 13.46, 3.05,                     !- X,Y,Z Vertex 1 {m}
  22.69, 13.46, 0,                        !- X,Y,Z Vertex 2 {m}
  5, 13.46, 0,                            !- X,Y,Z Vertex 3 {m}
  5, 13.46, 3.05;                         !- X,Y,Z Vertex 4 {m}

OS:Meter,
  {e80cebb4-6fea-4b6a-874b-fc680e963e04}, !- Handle
  Humidifier:Electricity,                 !- Name
  hourly,                                 !- Reporting Frequency
  False,                                  !- Meter File Only
  False;                                  !- Cumulative

OS:Surface,
  {2a92bdc0-4d97-477f-baad-970c9a88150f}, !- Handle
  Perimeter_ZN_4_wall_east,               !- Name
  Wall,                                   !- Surface Type
  ,                                       !- Construction Name
  {f55237cb-7d44-4aeb-8ccd-79a357b934fa}, !- Space Name
  Surface,                                !- Outside Boundary Condition
  {115f6014-b714-4598-8813-4a292ed8f6f2}, !- Outside Boundary Condition Object
  NoSun,                                  !- Sun Exposure
  NoWind,                                 !- Wind Exposure
  ,                                       !- View Factor to Ground
  ,                                       !- Number of Vertices
  5, 5, 3.05,                             !- X,Y,Z Vertex 1 {m}
  5, 5, 0,                                !- X,Y,Z Vertex 2 {m}
  5, 13.46, 0,                            !- X,Y,Z Vertex 3 {m}
  5, 13.46, 3.05;                         !- X,Y,Z Vertex 4 {m}

OS:ThermalZone,
  {095edb99-1a44-47bc-a2e2-f707ca252eef}, !- Handle
  Perimeter_ZN_4 Thermal Zone,            !- Name
  1,                                      !- Multiplier
  ,                                       !- Ceiling Height {m}
  ,                                       !- Volume {m3}
  ,                                       !- Floor Area {m2}
  ,                                       !- Zone Inside Convection Algorithm
  ,                                       !- Zone Outside Convection Algorithm
  ,                                       !- Zone Conditioning Equipment List Name