
OS:Version,
  {2e23da7d-7b3e-4865-ac02-2ffe9ab8bf3d}, !- Handle
  1.6.0;                                  !- Version Identifier

OS:Site,
  {149be0f3-0a8c-4db3-94af-77c8233a8a7f}, !- Handle
  Calgary Int'l_AB_CAN,                   !- Name
  51.12,                                  !- Latitude {deg}
  -114.02,                                !- Longitude {deg}
  -7,                                     !- Time Zone {hr}
  1084,                                   !- Elevation {m}
  City;                                   !- Terrain

OS:SimulationControl,
  {71696df9-6b3f-4d46-a827-d5475adfceea}, !- Handle
  Yes,                                    !- Do Zone Sizing Calculation
  Yes,                                    !- Do System Sizing Calculation
  Yes,                                    !- Do Plant Sizing Calculation
  No,                                     !- Run Simulation for Sizing Periods
  Yes,                                    !- Run Simulation for Weather File Run Periods
  0.04,                                   !- Loads Convergence Tolerance Value
  0.2,                                    !- Temperature Convergence Tolerance Value {deltaC}
  FullInteriorAndExterior,                !- Solar Distribution
  25,                                     !- Maximum Number of Warmup Days
  6;                                      !- Minimum Number of Warmup Days

OS:ConvergenceLimits,
  {3c892d32-ffec-4a6c-83be-29512abfde08}, !- Handle
  2,                                      !- Minimum System Timestep {minutes}
  25;                                     !- Maximum HVAC Iterations

OS:Meter,
  {cdf80df4-c561-41f0-b1c8-62c00e9004d1}, !- Handle
  InteriorLights:Electricity,             !- Name
  hourly,                                 !- Reporting Frequency
  False,                                  !- Meter File Only
  False;                                  !- Cumulative

OS:Surface,
  {10856233-a0de-4039-885c-40f69debad21}, !- Handle
  Point_Of_Sale_Floor,                    !- Name
  Floor,                                  !- Surface Type
  ,                                       !- Construction Name
  {ff69109a-d2b0-44db-a34d-708c0ab5d2fe}, !- Space Name
  Ground,                                 !- Outside Boundary Condition
  ,                                       !- Outside Boundary Condition Object
  NoSun,                                  !- Sun Exposure
  NoWind,                                 !- Wind Exposure
  ,                                       !- View Factor to Ground
  ,                                       !- Number of Vertices
  25.135, 6, 0,                           !- X,Y,Z Vertex 1 {m}
  25.135, 0, 0,                           !- X,Y,Z Vertex 2 {m}
  0, 0, 0,                                !- X,Y,Z Vertex 3 {m}
  0, 6, 0;                                !- X,Y,Z Vertex 4 {m}

OS:ThermalZone,
  {48bec29b-c086-496d-8c48-25a6004f27f3}, !- Handle
  Point_Of_Sale Thermal Zone,             !- Name
  1,                                      !- Multiplier
  ,                                       !- Ceiling Height {m}
  ,                                       !- Volume {m3}
  ,                                       !- Floor Area {m2}
  ,                                       !- Zone Inside Convection Algorithm
  ,                                       !- Zone Outside Convection Algorithm
  ,                                       !- Zone Conditioning Equipment List Name
  {b4e9a03f-9e2f-4633-85bb-50f2b82f94b3}, !- Zone Air Inlet Port List
  {0ef51404-86e8-4f25-92fb-d90e3897ae89}, !- Zone Air Exhaust Port List
  {51ce2fc7-6cea-4a93-a730-01fae377f4ec}, !- Zone Air Node Name
  ,                                       !- Zone Return Air Node Name
  ,                                       !- Primary Daylighting Control Name
  ,                                       !- Fraction of Zone Controlled by Primary Daylighting Control
  ,                                       !- Secondary Daylighting Control Name
  ,                                       !- Fraction of Zone Controlled by Secondary Daylighting Control
  ,                                       !- Illuminance Map Name
  ,                                       !- Group Rendering Name
  {ae07b27d-3ac4-4be0-ade8-bcf312553ab3}, !- Thermostat Name
  Yes;                                    !- Use Ideal Air Loads

OS:Node,
  {213f4db9-8648-4d91-9a7b-eceaca077b7a}, !- Handle
  {3bc8bdea-3017-46e3-942d-f9c1f7ed7bb4}, !- Name
  {51ce2fc7-6cea-4a93-a730-01fae377f4ec}, !- Inlet Port
  ;                                       !- Outlet Port

OS:Connection,
  {51ce2fc7-6cea-4a93-a730-01fae377f4ec}, !- Handle
  {55f3d0a7-dc16-45a3-9164-8d17af16bfa6}, !- Name
  {48bec29b-c086-496d-8c48-25a6004f27f3}, !- Source Object
  11,                                     !- Outlet Port
  {213f4db9-8648-4d91-9a7b-eceaca077b7a}, !- Target Object
  2;                                      !- Inlet Port

OS:PortList,
  {b4e9a03f-9e2f-4633-85bb-50f2b82f94b3}, !- Handle
  {4c3c6527-3b3f-4190-ad55-f7e913c3acb1}, !- Name
  {48bec29b-c086-496d-8c48-25a6004f27f3}; !- HVAC Component

OS:PortList,
  {0ef51404-86e8-4f25-92fb-d90e3897ae89}, !- Handle
  {b2f277dc-844a-420c-a8ef-5a8d5c51ff49}, !- Name
  {48bec29b-c086-496d-8c48-25a6004f27f3}; !- HVAC Component

OS:Sizing:Zone,
  {8c0b6774-2a93-4276-ae94-5bbca1de0455}, !- Handle
  {48bec29b-c086-496d-8c48-25a6004f27f3}, !- Zone or ZoneList Name
  14,                                     !- Zone Cooling Design Supply Air Temperature {C}
  40,                                     !- Zone Heating Design Supply Air Temperature {C}
  0.0085,                                 !- Zone Cooling Design Supply Air Humidity Ratio {kg-H2O/kg-air}
  0.008,                                  !- Zone Heating Design Supply Air Humidity Ratio {kg-H2O/kg-air}
  ,                                       !- Zone Heating Sizing Factor
  ,                                       !- Zone Cooling Sizing Factor
  DesignDay,                              !- Cooling Design Air Flow Method
  ,                                       !- Cooling Design Air Flow Rate {m3/s}
  ,                                       !- Cooling Minimum Air Flow per Zone Floor Area {m3/s-m2}
  ,                                       !- Cooling Minimum Air Flow {m3/s}
  ,                                       !- Cooling Minimum Air Flow Fraction
  DesignDay,                              !- Heating Design Air Flow Method
  ,                                       !- Heating Design Air Flow Rate {m3/s}
  ,                                       !- Heating Maximum Air Flow per Zone Floor Area {m3/s-m2}
  ,                                       !- Heating Maximum Air Flow {m3/s}
  ,                                       !- Heating Maximum Air Flow Fraction
  ,                                       !- Design Zone Air Distribution Effectiveness in Cooling Mode
  ;                                       !- Design Zone Air Distribution Effectiveness in Heating Mode

OS:ZoneHVAC:EquipmentList,
  {d25cb767-6e4b-4058-81fa-2c169d6ec89d}, !- Handle
  {8bc2b35a-c904-4f12-ac54-1fff89cb469a}, !- Name
  {48bec29b-c086-496d-8c48-25a6004f27f3}; !- Thermal Zone

OS:Space,
  {ff69109a-d2b0-44db-a34d-708c0ab5d2fe}, !- Handle
  Point_Of_Sale,                          !- Name
  {1997b0b5-53a2-4018-8fb1-3c7919d7c602}, !- Space Type Name
  ,                                       !- Default Construction Set Name
  ,                                       !- Default Schedule Set Name
  0,                                      !- Direction of Relative North {deg}
  0,                                      !- X Origin {m}
  0,                                      !- Y Origin {m}
  0,                                      !- Z Origin {m}
  {d9147d51-69f6-4b2d-a640-383a383df529}, !- Building Story Name
  {48bec29b-c086-496d-8c48-25a6004f27f3}, !- Thermal Zone Name
  Yes,                                    !- Part of Total Floor Area
  ;                                       !- Design Specification Outdoor Air Object Name

OS:Meter,
  {5417ba81-b161-4732-802c-d44c6380acc6}, !- Handle
  Gas:Facility,                           !- Name
  hourly,                                 !- Reporting Frequency
  False,                                  !- Meter File Only
  False;                                  !- Cumulative

OS:Surface,
  {76134ec0-bfae-403c-8cfa-0b02bc17a470}, !- Handle
  Point_Of_Sale_Wall_East_2,              !- Name
  Wall,                                   !- Surface Type
  ,                                       !- Construction Name
  {ff69109a-d2b0-44db-a34d-708c0ab5d2fe}, !- Space Name
  Surface,                                !- Outside Boundary Condition
  {8256257a-029f-475b-90bd-903d0317e354}, !- Outside Boundary Condition Object
  NoSun,                                  !- Sun Exposure
  NoWind,                                 !- Wind Exposure
  ,                                       !- View Factor to Ground
  ,                                       !- Number of Vertices
  25.135, 3, 6.096,                       !- X,Y,Z Vertex 1 {m}
  25.135, 3, 0,                           !- X,Y,Z Vertex 2 {m}
  25.135, 6, 0,                           !- X,Y,Z Vertex 3 {m}
  25.135, 6, 6.096;                       !- X,Y,Z Vertex 4 {m}

OS:ThermalZone,
  {f0dab61f-a726-4c43-8a9a-71aa34f8fef9}, !- Handle
  Front_Entry Thermal Zone,               !- Name
  1,                                      !- Multiplier
  ,                                       !- Ceiling Height {m}
  ,                                       !- Volume {m3}
  ,                                       !- Floor Area {m2}
  ,                                       !- Zone Inside Convection Algorithm
  ,                                       !- Zone Outside Convection Algorithm
  ,                                       !- Zone Conditioning Equipment List Name
  {db29be52-0935-4095-a340-1fa81aa85dce}, !- Zone Air Inlet Port List
  {f9e80fb3-acfb-4cde-9675-cea15aeb2ac9}, !- Zone Air Exhaust Port List
  {20ada338-37ac-4f05-836d-87810e118df5}, !- Zone Air Node Name
  ,                                       !- Zone Return Air Node Name
  ,                                       !- Primary Daylighting Control Name
  ,                                       !- Fraction of Zone Controlled by Primary Daylighting Control
  ,                                       !- Secondary Daylighting Control Name
  ,                                       !- Fraction of Zone Controlled by Secondary Daylighting Control
  ,                                       !- Illuminance Map Name
  ,                                       !- Group Rendering Name
  {ae07b27d-3ac4-4be0-ade8-bcf312553ab3}, !- Thermostat Name
  Yes;                                    !- Use Ideal Air Loads

OS:Node,
  {13af9255-daf3-45cf-8ab1-e599facc8c99}, !- Handle
  {0b08be00-53c6-43eb-a29a-d7e01bf89a15}, !- Name
  {20ada338-37ac-4f05-836d-87810e118df5}, !- Inlet Port
  ;                                       !- Outlet Port

OS:Connection,
  {20ada338-37ac-4f05-836d-87810e118df5}, !- Handle
  {1e486c68-21c4-4738-9ec8-fb9eb609781d}, !- Name
  {f0dab61f-a726-4c43-8a9a-71aa34f8fef9}, !- Source Object
  11,                                     !- Outlet Port
  {13af9255-daf3-45cf-8ab1-e599facc8c99}, !- Target Object
  2;                                      !- Inlet Port

OS:PortList,
  {db29be52-0935-4095-a340-1fa81aa85dce}, !- Handle
  {2e439aa4-b886-47e5-9d9e-a74dd6fe907b}, !- Name
  {f0dab61f-a726-4c43-8a9a-71aa34f8fef9}; !- HVAC Component

OS:PortList,
  {f9e80fb3-acfb-4cde-9675-cea15aeb2ac9}, !- Handle
  {ba758498-c7a7-40ab-8d4b-8820b8765706}, !- Name
  {f0dab61f-a726-4c43-8a9a-71aa34f8fef9}; !- HVAC Component

OS:Sizing:Zone,
  {a8cf6caa-efa7-4806-aa6e-7813885abe6a}, !- Handle
  {f0dab61f-a726-4c43-8a9a-71aa34f8fef9}, !- Zone or ZoneList Name
  14,                                     !- Zone Cooling Design Supply Air Temperature {C}
  40,                                     !- Zone Heating Design Supply Air Temperature {C}
  0.0085,                                 !- Zone Cooling Design Supply Air Humidity Ratio {kg-H2O/kg-air}
  0.008,                                  !- Zone Heating Design Supply Air Humidity Ratio {kg-H2O/kg-air}
  ,                                       !- Zone Heating Sizing Factor
  ,                                       !- Zone Cooling Sizing Factor
  DesignDay,                              !- Cooling Design Air Flow Method
  ,                                       !- Cooling Design Air Flow Rate {m3/s}
  ,                                       !- Cooling Minimum Air Flow per Zone Floor Area {m3/s-m2}
  ,                                       !- Cooling Minimum Air Flow {m3/s}
  ,                                       !- Cooling Minimum Air Flow Fraction
  DesignDay,                              !- Heating Design Air Flow Method
  ,                                       !- Heating Design Air Flow Rate {m3/s}
  ,                                       !- Heating Maximum Air Flow per Zone Floor Area {m3/s-m2}
  ,                                       !- Heating Maximum Air Flow {m3/s}
  ,                                       !- Heating Maximum Air Flow Fraction
  ,                                       !- Design Zone Air Distribution Effectiveness in Cooling Mode
  ;                                       !- Design Zone Air Distribution Effectiveness in Heating Mode

OS:ZoneHVAC:EquipmentList,
  {ecc09d1a-e998-4091-a80f-32f7e45beb0b}, !- Handle
  {9b8da1a8-7e6f-457b-92a9-e2fc242314e7}, !- Name
  {f0dab61f-a726-4c43-8a9a-71aa34f8fef9}; !- Thermal Zone

OS:Space,
  {321c9c0e-ba0e-4712-ba48-5a7e555e1815}, !- Handle
  Front_Entry,                            !- Name
  {1e40d27a-eb07-4600-89c6-1fe8388d2b64}, !- Space Type Name
  ,                                       !- Default Construction Set Name
  ,                                       !- Default Schedule Set Name
  0,                                      !- Direction of Relative North {deg}
  25.135,                                 !- X Origin {m}
  0,                                      !- Y Origin {m}
  0,                                      !- Z Origin {m}
  {d9147d51-69f6-4b2d-a640-383a383df529}, !- Building Story Name
  {f0dab61f-a726-4c43-8a9a-71aa34f8fef9}, !- Thermal Zone Name
  Yes,                                    !- Part of Total Floor Area
  ;                                       !- Design Specification Outdoor Air Object Name

OS:Meter,
  {03646883-ba54-4935-bd03-bedb0532079b}, !- Handle
  Heating:Gas,                            !- Name
  hourly,                                 !- Reporting Frequency
  False,                                  !- Meter File Only
  False;                                  !- Cumulative

OS:Surface,
  {4b274ed3-f711-4644-babe-b1f4471a07e7}, !- Handle
  Core_Retail_Wall_East_1,                !- Name
  Wall,                                   !- Surface Type
  ,                                       !- Construction Name
  {96bfe5e4-f063-418a-9b51-cfe7f1405bf0}, !- Space Name
  Surface,                                !- Outside Boundary Condition
  {2cef9c94-db03-4ca4-832e-75b93318b9b1}, !- Outside Boundary Condition Object
  NoSun,                                  !- Sun Exposure
  NoWind,                                 !- Wind Exposure
  ,                                       !- View Factor to Ground
  ,                                       !- Number of Vertices
  29.135, -3, 6.096,                      !- X,Y,Z Vertex 1 {m}
  29.135, -3, 0,                          !- X,Y,Z Vertex 2 {m}
  29.135, 0, 0,                           !- X,Y,Z Vertex 3 {m}
  29.135, 0, 6.096;                       !- X,Y,Z Vertex 4 {m}

OS:ThermalZone,
  {309af468-7d56-4897-9a7e-d14a1fb7832c}, !- Handle
  Core_Retail Thermal Zone,               !- Name
  1,                                      !- Multiplier
  ,                                       !- Ceiling Height {m}
  ,                                       !- Volume {m3}
  ,                                       !- Floor Area {m2}
  ,                                       !- Zone Inside Convection Algorithm
  ,                                       !- Zone Outside Convection Algorithm
  ,                                       !- Zone Conditioning Equipment List Name
  {bdf83bb0-d8b1-423c-b111-fcc37668cc62}, !- Zone Air Inlet Port List
  {14ad7faf-924c-42c0-a8f4-215fc305c420}, !- Zone Air Exhaust Port List
  {e1a3c674-43db-4116-a381-290ceae5bd91}, !- Zone Air Node Name
  ,                                       !- Zone Return Air Node Name
  ,                                       !- Primary Daylighting Control Name
  ,                                       !- Fraction of Zone Controlled by Primary Daylighting Control
  ,                                       !- Secondary Daylighting Control Name
  ,                                       !- Fraction of Zone Controlled by Secondary Daylighting Control
  ,                                       !- Illuminance Map Name
  ,                                       !- Group Rendering Name
  {ae07b27d-3ac4-4be0-ade8-bcf312553ab3}, !- Thermostat Name
  Yes;                                    !- Use Ideal Air Loads

OS:Node,
  {0bb8c171-7237-4c2c-a72e-e016439576c2}, !- Handle
  {a1e1aec2-0036-4d0a-a595-9f7e6c08685e}, !- Name
  {e1a3c674-43db-4116-a381-290ceae5bd91}, !- Inlet Port
  ;                                       !- Outlet Port

OS:Connection,
  {e1a3c674-43db-4116-a381-290ceae5bd91}, !- Handle
  {0b6840e5-b08c-4dae-91cb-cd3305de2064}, !- Name
  {309af468-7d56-4897-9a7e-d14a1fb7832c}, !- Source Object
  11,                                     !- Outlet Port
  {0bb8c171-7237-4c2c-a72e-e016439576c2}, !- Target Object
  2;                                      !- Inlet Port

OS:PortList,
  {bdf83bb0-d8b1-423c-b111-fcc37668cc62}, !- Handle
  {68294567-5325-43c3-a87a-d376a9d425a2}, !- Name
  {309af468-7d56-4897-9a7e-d14a1fb7832c}; !- HVAC Component

OS:PortList,
  {14ad7faf-924c-42c0-a8f4-215fc305c420}, !- Handle
  {ab681298-6aec-42ab-a472-47be131c4c4d}, !- Name
  {309af468-7d56-4897-9a7e-d14a1fb7832c}; !- HVAC Component

OS:Sizing:Zone,
  {a173b1b4-4125-454a-9994-20f163217640}, !- Handle
  {309af468-7d56-4897-9a7e-d14a1fb7832c}, !- Zone or ZoneList Name
  14,                                     !- Zone Cooling Design Supply Air Temperature {C}
  40,                                     !- Zone Heating Design Supply Air Temperature {C}
  0.0085,                                 !- Zone Cooling Design Supply Air Humidity Ratio {kg-H2O/kg-air}
  0.008,                                  !- Zone Heating Design Supply Air Humidity Ratio {kg-H2O/kg-air}
  ,                                       !- Zone Heating Sizing Factor
  ,                                       !- Zone Cooling Sizing Factor
  DesignDay,                              !- Cooling Design Air Flow Method
  ,                                       !- Cooling Design Air Flow Rate {m3/s}
  ,                                       !- Cooling Minimum Air Flow per Zone Floor Area {m3/s-m2}
  ,                                       !- Cooling Minimum Air Flow {m3/s}
  ,                                       !- Cooling Minimum Air Flow Fraction
  DesignDay,                              !- Heating Design Air Flow Method
  ,                                       !- Heating Design Air Flow Rate {m3/s}
  ,                                       !- Heating Maximum Air Flow per Zone Floor Area {m3/s-m2}
  ,                                       !- Heating Maximum Air Flow {m3/s}
  ,                                       !- Heating Maximum Air Flow Fraction
  ,                                       !- Design Zone Air Distribution Effectiveness in Cooling Mode
  ;                                       !- Design Zone Air Distribution Effectiveness in Heating Mode

OS:ZoneHVAC:EquipmentList,
  {6278d519-5276-4d45-b831-dfdf4faff42c}, !- Handle
  {32cead55-32cf-42e9-9d42-d730b71f478b}, !- Name
  {309af468-7d56-4897-9a7e-d14a1fb7832c}; !- Thermal Zone

OS:Space,
  {96bfe5e4-f063-418a-9b51-cfe7f1405bf0}, !- Handle
  Core_Retail,                            !- Name
  {1997b0b5-53a2-4018-8fb1-3c7919d7c602}, !- Space Type Name
  ,                                       !- Default Construction Set Name
  ,                                       !- Default Schedule Set Name
  0,                                      !- Direction of Relative North {deg}
  0,                                      !- X Origin {m}
  6,                                      !- Y Origin {m}
  0,                                      !- Z Origin {m}
  {d9147d51-69f6-4b2d-a640-383a383df529}, !- Building Story Name
  {309af468-7d56-4897-9a7e-d14a1fb7832c}, !- Thermal Zone Name
  Yes,                                    !- Part of Total Floor Area
  ;                                       !- Design Specification Outdoor Air Object Name

OS:Surface,
  {d7513e1c-525f-407e-bce8-dc1344c5f17c}, !- Handle
  Front_Retail_Wall_South,                !- Name
  Wall,                                   !- Surface Type
  ,                                       !- Construction Name
  {cad6f073-40c9-43b1-95d8-59ca9bd94a10}, !- Space Name
  Outdoors,                               !- Outside Boundary Condition
  ,                                       !- Outside Boundary Condition Object
  SunExposed,                             !- Sun Exposure
  WindExposed,                            !- Wind Exposure
  ,                                       !- View Factor to Ground
  ,                                       !- Number of Vertices
  0, 0, 6.096,                            !- X,Y,Z Vertex 1 {m}
  0, 0, 0,                                !- X,Y,Z Vertex 2 {m}
  25.135, 0, 0,                           !- X,Y,Z Vertex 3 {m}
  25.135, 0, 6.096;                       !- X,Y,Z Vertex 4 {m}

OS:ThermalZone,
  {2a8f38d8-4d61-44ee-b541-928549329417}, !- Handle
  Front_Retail Thermal Zone,              !- Name
  1,                                      !- Multiplier
  ,                                       !- Ceiling Height {m}
  ,                                       !- Volume {m3}
  ,                                       !- Floor Area {m2}
  ,                                       !- Zone Inside Convection Algorithm
  ,                                       !- Zone Outside Convection Algorithm
  ,                                       !- Zone Conditioning Equipment List Name
  {f63d4695-816b-4ae6-86f4-3ef3ffccf27d}, !- Zone Air Inlet Port List
  {f954766f-b4f1-49c2-8d87-6f4ca2277441}, !- Zone Air Exhaust Port List
  {8a9ded75-93b4-43a2-9f92-7bcd661fc0f3}, !- Zone Air Node Name
  ,                                       !- Zone Return Air Node Name
  ,                                       !- Primary Daylighting Control Name
  ,                                       !- Fraction of Zone Controlled by Primary Daylighting Control
  ,                                       !- Secondary Daylighting Control Name
  ,                                       !- Fraction of Zone Controlled by Secondary Daylighting Control
  ,                                       !- Illuminance Map Name
  ,                                       !- Group Rendering Name
  {ae07b27d-3ac4-4be0-ade8-bcf312553ab3}, !- Thermostat Name
  Yes;                                    !- Use Ideal Air Loads

OS:Node,
  {4bc8aeca-50dd-4b11-b464-3831eec1f3b4}, !- Handle
  {5ae1354d-6b1a-44d6-9eb3-882e96b8425e}, !- Name
  {8a9ded75-93b4-43a2-9f92-7bcd661fc0f3}, !- Inlet Port
  ;                                       !- Outlet Port

OS:Connection,
  {8a9ded75-93b4-43a2-9f92-7bcd661fc0f3}, !- Handle
  {057ceb3e-20c6-405d-afb0-4e96e6a94570}, !- Name
  {2a8f38d8-4d61-44ee-b541-928549329417}, !- Source Object
  11,                                     !- Outlet Port
  {4bc8aeca-50dd-4b11-b464-3831eec1f3b4}, !- Target Object
  2;                                      !- Inlet Port

OS:PortList,
  {f63d4695-816b-4ae6-86f4-3ef3ffccf27d}, !- Handle
  {698987d4-2353-486c-8bd2-febc1cd4c372}, !- Name
  {2a8f38d8-4d61-44ee-b541-928549329417}; !- HVAC Component

OS:PortList,
  {f954766f-b4f1-49c2-8d87-6f4ca2277441}, !- Handle
  {4ac00c2c-1a8a-4bc9-badb-a0021f6e3b6d}, !- Name
  {2a8f38d8-4d61-44ee-b541-928549329417}; !- HVAC Component

OS:Sizing:Zone,
  {649f4d5c-c030-4239-ba3b-c32da63f39cc}, !- Handle
  {2a8f38d8-4d61-44ee-b541-928549329417}, !- Zone or ZoneList Name
  14,                                     !- Zone Cooling Design Supply Air Temperature {C}
  40,                                     !- Zone Heating Design Supply Air Temperature {C}
  0.0085,                                 !- Zone Cooling Design Supply Air Humidity Ratio {kg-H2O/kg-air}
  0.008,                                  !- Zone Heating Design Supply Air Humidity Ratio {kg-H2O/kg-air}
  ,                                       !- Zone Heating Sizing Factor
  ,                                       !- Zone Cooling Sizing Factor
  DesignDay,                              !- Cooling Design Air Flow Method
  ,                                       !- Cooling Design Air Flow Rate {m3/s}
  ,                                       !- Cooling Minimum Air Flow per Zone Floor Area {m3/s-m2}
  ,                                       !- Cooling Minimum Air Flow {m3/s}
  ,                                       !- Cooling Minimum Air Flow Fraction
  DesignDay,                              !- Heating Design Air Flow Method
  ,                                       !- Heating Design Air Flow Rate {m3/s}
  ,                                       !- Heating Maximum Air Flow per Zone Floor Area {m3/s-m2}
  ,                                       !- Heating Maximum Air Flow {m3/s}
  ,                                       !- Heating Maximum Air Flow Fraction
  ,                                       !- Design Zone Air Distribution Effectiveness in Cooling Mode
  ;                                       !- Design Zone Air Distribution Effectiveness in Heating Mode

OS:ZoneHVAC:EquipmentList,
  {0f932d9a-3231-4269-bda2-d6e040b0dc5d}, !- Handle
  {8dc397b9-5cda-4198-954a-9bfd1a61bacc}, !- Name
  {2a8f38d8-4d61-44ee-b541-928549329417}; !- Thermal Zone

OS:Space,
  {cad6f073-40c9-43b1-95d8-59ca9bd94a10}, !- Handle
  Front_Retail,                           !- Name
  {1997b0b5-53a2-4018-8fb1-3c7919d7c602}, !- Space Type Name
  ,                                       !- Default Construction Set Name
  ,                                       !- Default Schedule Set Name
  0,                                      !- Direction of Relative North {deg}
  29.135,                                 !- X Origin {m}
  0,                                      !- Y Origin {m}
  0,                                      !- Z Origin {m}
  {d9147d51-69f6-4b2d-a640-383a383df529}, !- Building Story Name
  {2a8f38d8-4d61-44ee-b541-928549329417}, !- Thermal Zone Name
  Yes,                                    !- Part of Total Floor Area
  ;                                       !- Design Specification Outdoor Air Object Name

OS:Meter,
  {ba04aadb-3561-4a68-a964-46196a610965}, !- Handle
  Electricity:Facility,                   !- Name
  hourly,                                 !- Reporting Frequency
  False,                                  !- Meter File Only
  False;                                  !- Cumulative

OS:Surface,
  {8256257a-029f-475b-90bd-903d0317e354}, !- Handle
  Core_Retail_Wall_West_1,                !- Name
  Wall,                                   !- Surface Type
  ,                                       !- Construction Name
  {96bfe5e4-f063-418a-9b51-cfe7f1405bf0}, !- Space Name
  Surface,                                !- Outside Boundary Condition
  {76134ec0-bfae-403c-8cfa-0b02bc17a470}, !- Outside Boundary Condition Object
  NoSun,                                  !- Sun Exposure
  NoWind,                                 !- Wind Exposure
  ,                                       !- View Factor to Ground
  ,                                       !- Number of Vertices
  25.135, 0, 6.096,                       !- X,Y,Z Vertex 1 {m}
  25.135, 0, 0,                           !- X,Y,Z Vertex 2 {m}
  25.135, -3, 0,                          !- X,Y,Z Vertex 3 {m}
  25.135, -3, 6.096;                      !- X,Y,Z Vertex 4 {m}

OS:Surface,
  {c4b7f61e-460a-4820-aacc-b8fbed9e73d3}, !- Handle
  Core_Retail_Wall_North,                 !- Name
  Wall,                                   !- Surface Type
  ,                                       !- Construction Name
  {96bfe5e4-f063-418a-9b51-cfe7f1405bf0}, !- Space Name
  Surface,                                !- Outside Boundary Condition
  {9b415e49-1bd8-4959-883d-0e410b491c03}, !- Outside Boundary Condition Object
  NoSun,                                  !- Sun Exposure
  NoWind,                                 !- Wind Exposure
  ,                                       !- View Factor to Ground
  ,                                       !- Number of Vertices
  54.27, 29.27, 6.096,                    !- X,Y,Z Vertex 1 {m}
  54.27, 29.27, 0,                        !- X,Y,Z Vertex 2 {m}
  0, 29.27, 0,                            !- X,Y,Z Vertex 3 {m}
  0, 29.27, 6.096;                        !- X,Y,Z Vertex 4 {m}

OS:ThermalZone,
  {e02fb15f-1bd0-43cb-87ed-cccef7d36854}, !- Handle
  Back_Space Thermal Zone,                !- Name
  1,                                      !- Multiplier
  ,                                       !- Ceiling Height {m}
  ,                                       !- Volume {m3}
  ,                                       !- Floor Area {m2}
  ,                                       !- Zone Inside Convection Algorithm
  ,                                       !- Zone Outside Convection Algorithm
  ,                                       !- Zone Conditioning Equipment List Name
  {0b9023b0-b138-4586-9e40-18201d3fef9a}, !- Zone Air Inlet Port List
  {9e519359-d0db-4022-a3b8-f34c8e9b0650}, !- Zone Air Exhaust Port List