
OS:Version,
  {452a3966-277b-401e-aa1f-af4cca01f46c}, !- Handle
  1.6.0;                                  !- Version Identifier

OS:Site,
  {35bde413-acad-4e11-93a8-4e8e9f80dac5}, !- Handle
  Calgary Int'l_AB_CAN,                   !- Name
  51.12,                                  !- Latitude {deg}
  -114.02,                                !- Longitude {deg}
  -7,                                     !- Time Zone {hr}
  1084,                                   !- Elevation {m}
  City;                                   !- Terrain

OS:SimulationControl,
  {6cae74d1-88d6-458f-a715-61af64f01ef1}, !- Handle
  Yes,                                    !- Do Zone Sizing Calculation
  Yes,                                    !- Do System Sizing Calculation
  Yes,                                    !- Do Plant Sizing Calculation
  No,                                     !- Run Simulation for Sizing Periods
  Yes,                                    !- Run Simulation for Weather File Run Periods
  0.04,                                   !- Loads Convergence Tolerance Value
  0.2,                                    !- Temperature Convergence Tolerance Value {deltaC}
  FullInteriorAndExterior,                !- Solar Distribution
  25,                                     !- Maximum Number of Warmup Days
  6;                                      !- Minimum Number of Warmup Days

OS:Curve:Biquadratic,
  {1740027b-03f2-423b-9f2d-13fa0b1f2bf8}, !- Handle
  Cool-Cap-fT,                            !- Name
  0.9712123,                              !- Coefficient1 Constant
  -0.015275502,                           !- Coefficient2 x
  0.0014434524,                           !- Coefficient3 x**2
  -0.00039321,                            !- Coefficient4 y
  -6.8364e-006,                           !- Coefficient5 y**2
  -0.0002905956,                          !- Coefficient6 x*y
  -100,                                   !- Minimum Value of x {BasedOnField A2}
  100,                                    !- Maximum Value of x {BasedOnField A2}
  -100,                                   !- Minimum Value of y {BasedOnField A3}
  100;                                    !- Maximum Value of y {BasedOnField A3}

OS:Surface,
  {0e4123e9-21ea-404b-aa77-513fae2376af}, !- Handle
  SMstore1_Roof,                          !- Name
  RoofCeiling,                            !- Surface Type
  ,                                       !- Construction Name
  {6086f8fc-38bf-412e-9925-d1722d2e40df}, !- Space Name
  Outdoors,                               !- Outside Boundary Condition
  ,                                       !- Outside Boundary Condition Object
  SunExposed,                             !- Sun Exposure
  WindExposed,                            !- Wind Exposure
  ,                                       !- View Factor to Ground
  ,                                       !- Number of Vertices
  22.86, 0, 5.18,                         !- X,Y,Z Vertex 1 {m}
  22.86, 22.86, 5.18,                     !- X,Y,Z Vertex 2 {m}
  15.24, 22.86, 5.18,                     !- X,Y,Z Vertex 3 {m}
  15.24, 0, 5.18;                         !- X,Y,Z Vertex 4 {m}

OS:ThermalZone,
  {b94ed6c5-93ce-4d5c-b6ca-50cc61e838a2}, !- Handle
  SMstore1 Thermal Zone,                  !- Name
  1,                                      !- Multiplier
  ,                                       !- Ceiling Height {m}
  ,                                       !- Volume {m3}
  ,                                       !- Floor Area {m2}
  ,                                       !- Zone Inside Convection Algorithm
  ,                                       !- Zone Outside Convection Algorithm
  ,                                       !- Zone Conditioning Equipment List Name
  {5c78de75-f339-418a-b94a-7ce1cb38d6f9}, !- Zone Air Inlet Port List
  {6c578e87-c5a3-444d-b4f0-6983b6dcd757}, !- Zone Air Exhaust Port List
  {2d5299a0-e658-4961-aba5-cdbf7606099c}, !- Zone Air Node Name
  ,                                       !- Zone Return Air Node Name
  ,                                       !- Primary Daylighting Control Name
  ,                                       !- Fraction of Zone Controlled by Primary Daylighting Control
  ,                                       !- Secondary Daylighting Control Name
  ,                                       !- Fraction of Zone Controlled by Secondary Daylighting Control
  ,                                       !- Illuminance Map Name
  ,                                       !- Group Rendering Name
  {cbbabc86-f165-4267-8563-852b766ba852}, !- Thermostat Name
  Yes;                                    !- Use Ideal Air Loads

OS:Node,
  {4277d694-31e8-47d7-a640-680107d6ac0e}, !- Handle
  {37d1713f-0aa8-412c-83d6-5e8c185b1e75}, !- Name
  {2d5299a0-e658-4961-aba5-cdbf7606099c}, !- Inlet Port
  ;                                       !- Outlet Port

OS:Connection,
  {2d5299a0-e658-4961-aba5-cdbf7606099c}, !- Handle
  {5172d0d6-2a1e-4549-bf14-09a55278efd3}, !- Name
  {b94ed6c5-93ce-4d5c-b6ca-50cc61e838a2}, !- Source Object
  11,                                     !- Outlet Port
  {4277d694-31e8-47d7-a640-680107d6ac0e}, !- Target Object
  2;                                      !- Inlet Port

OS:PortList,
  {5c78de75-f339-418a-b94a-7ce1cb38d6f9}, !- Handle
  {6b34193a-8dbe-4a6d-806e-33705790843d}, !- Name
  {b94ed6c5-93ce-4d5c-b6ca-50cc61e838a2}; !- HVAC Component

OS:PortList,
  {6c578e87-c5a3-444d-b4f0-6983b6dcd757}, !- Handle
  {2f21d060-8ae3-49bd-973a-be2a73b42fbf}, !- Name
  {b94ed6c5-93ce-4d5c-b6ca-50cc61e838a2}; !- HVAC Component

OS:Sizing:Zone,
  {da1a2167-8d57-4b1e-bace-c8679bd716ab}, !- Handle
  {b94ed6c5-93ce-4d5c-b6ca-50cc61e838a2}, !- Zone or ZoneList Name
  14,                                     !- Zone Cooling Design Supply Air Temperature {C}
  40,                                     !- Zone Heating Design Supply Air Temperature {C}
  0.0085,                                 !- Zone Cooling Design Supply Air Humidity Ratio {kg-H2O/kg-air}
  0.008,                                  !- Zone Heating Design Supply Air Humidity Ratio {kg-H2O/kg-air}
  ,                                       !- Zone Heating Sizing Factor
  ,                                       !- Zone Cooling Sizing Factor
  DesignDay,                              !- Cooling Design Air Flow Method
  ,                                       !- Cooling Design Air Flow Rate {m3/s}
  ,                                       !- Cooling Minimum Air Flow per Zone Floor Area {m3/s-m2}
  ,                                       !- Cooling Minimum Air Flow {m3/s}
  ,                                       !- Cooling Minimum Air Flow Fraction
  DesignDay,                              !- Heating Design Air Flow Method
  ,                                       !- Heating Design Air Flow Rate {m3/s}
  ,                                       !- Heating Maximum Air Flow per Zone Floor Area {m3/s-m2}
  ,                                       !- Heating Maximum Air Flow {m3/s}
  ,                                       !- Heating Maximum Air Flow Fraction
  ,                                       !- Design Zone Air Distribution Effectiveness in Cooling Mode
  ;                                       !- Design Zone Air Distribution Effectiveness in Heating Mode

OS:ZoneHVAC:EquipmentList,
  {28de391d-cecd-49fe-9940-117272df9c66}, !- Handle
  {91da46ea-f695-4eff-81f0-37cf622cc39e}, !- Name
  {b94ed6c5-93ce-4d5c-b6ca-50cc61e838a2}; !- Thermal Zone

OS:Space,
  {6086f8fc-38bf-412e-9925-d1722d2e40df}, !- Handle
  SMstore1,                               !- Name
  {1e0f3431-a956-4e4a-8a2c-f796c9e557f5}, !- Space Type Name
  ,                                       !- Default Construction Set Name
  ,                                       !- Default Schedule Set Name
  0,                                      !- Direction of Relative North {deg}
  0,                                      !- X Origin {m}
  0,                                      !- Y Origin {m}
  0,                                      !- Z Origin {m}
  {596c62b5-d88a-456a-8221-b8fbce766819}, !- Building Story Name
  {b94ed6c5-93ce-4d5c-b6ca-50cc61e838a2}, !- Thermal Zone Name
  Yes,                                    !- Part of Total Floor Area
  ;                                       !- Design Specification Outdoor Air Object Name

OS:Timestep,
  {2240b850-ab01-4a83-8950-34dfc77b6797}, !- Handle
  6;                                      !- Number of Timesteps per Hour

OS:ThermalZone,
  {3772a553-b09e-4baf-a43f-e38105dcc36e}, !- Handle
  SMstore6 Thermal Zone,                  !- Name
  1,                                      !- Multiplier
  ,                                       !- Ceiling Height {m}
  ,                                       !- Volume {m3}
  ,                                       !- Floor Area {m2}
  ,                                       !- Zone Inside Convection Algorithm
  ,                                       !- Zone Outside Convection Algorithm
  ,                                       !- Zone Conditioning Equipment List Name
  {5052eb00-af7a-42ed-9302-7ebc662a5629}, !- Zone Air Inlet Port List
  {55961902-2727-4924-a39e-c86dbdf3f5b5}, !- Zone Air Exhaust Port List
  {e0502d60-2546-4fa8-aef8-73a72b22e858}, !- Zone Air Node Name
  ,                                       !- Zone Return Air Node Name
  ,                                       !- Primary Daylighting Control Name
  ,                                       !- Fraction of Zone Controlled by Primary Daylighting Control
  ,                                       !- Secondary Daylighting Control Name
  ,                                       !- Fraction of Zone Controlled by Secondary Daylighting Control
  ,                                       !- Illuminance Map Name
  ,                                       !- Group Rendering Name
  {cbbabc86-f165-4267-8563-852b766ba852}, !- Thermostat Name
  Yes;                                    !- Use Ideal Air Loads

OS:Node,
  {56d8b40f-6d0e-4293-9834-2a51d20cd89c}, !- Handle
  {13c3dbbf-ae6b-40fc-8bff-0c85299e1254}, !- Name
  {e0502d60-2546-4fa8-aef8-73a72b22e858}, !- Inlet Port
  ;                                       !- Outlet Port

OS:Connection,
  {e0502d60-2546-4fa8-aef8-73a72b22e858}, !- Handle
  {d8a7b234-ae43-4c59-8e57-f4a00de09cc6}, !- Name
  {3772a553-b09e-4baf-a43f-e38105dcc36e}, !- Source Object
  11,                                     !- Outlet Port
  {56d8b40f-6d0e-4293-9834-2a51d20cd89c}, !- Target Object
  2;                                      !- Inlet Port

OS:PortList,
  {5052eb00-af7a-42ed-9302-7ebc662a5629}, !- Handle
  {0a97c789-08c8-42e0-bfed-9778ff8eb508}, !- Name
  {3772a553-b09e-4baf-a43f-e38105dcc36e}; !- HVAC Component

OS:PortList,
  {55961902-2727-4924-a39e-c86dbdf3f5b5}, !- Handle
  {ab654a3b-8236-4b7c-8adc-15bddd8bb0d9}, !- Name
  {3772a553-b09e-4baf-a43f-e38105dcc36e}; !- HVAC Component

OS:Sizing:Zone,
  {f907ff69-5918-4f73-b473-4e23cae760e1}, !- Handle
  {3772a553-b09e-4baf-a43f-e38105dcc36e}, !- Zone or ZoneList Name
  14,                                     !- Zone Cooling Design Supply Air Temperature {C}
  40,                                     !- Zone Heating Design Supply Air Temperature {C}
  0.0085,                                 !- Zone Cooling Design Supply Air Humidity Ratio {kg-H2O/kg-air}
  0.008,                                  !- Zone Heating Design Supply Air Humidity Ratio {kg-H2O/kg-air}
  ,                                       !- Zone Heating Sizing Factor
  ,                                       !- Zone Cooling Sizing Factor
  DesignDay,                              !- Cooling Design Air Flow Method
  ,                                       !- Cooling Design Air Flow Rate {m3/s}
  ,                                       !- Cooling Minimum Air Flow per Zone Floor Area {m3/s-m2}
  ,                                       !- Cooling Minimum Air Flow {m3/s}
  ,                                       !- Cooling Minimum Air Flow Fraction
  DesignDay,                              !- Heating Design Air Flow Method
  ,                                       !- Heating Design Air Flow Rate {m3/s}
  ,                                       !- Heating Maximum Air Flow per Zone Floor Area {m3/s-m2}
  ,                                       !- Heating Maximum Air Flow {m3/s}
  ,                                       !- Heating Maximum Air Flow Fraction
  ,                                       !- Design Zone Air Distribution Effectiveness in Cooling Mode
  ;                                       !- Design Zone Air Distribution Effectiveness in Heating Mode

OS:ZoneHVAC:EquipmentList,
  {fdd8402a-035f-45b0-91c8-4c4d7218195c}, !- Handle
  {e882f54b-1ace-4d7d-bb03-e2583b69c465}, !- Name
  {3772a553-b09e-4baf-a43f-e38105dcc36e}; !- Thermal Zone

OS:Space,
  {255b1a73-0840-44af-9cb6-bfb6f336ae00}, !- Handle
  SMstore6,                               !- Name
  {1e0f3431-a956-4e4a-8a2c-f796c9e557f5}, !- Space Type Name
  ,                                       !- Default Construction Set Name
  ,                                       !- Default Schedule Set Name
  0,                                      !- Direction of Relative North {deg}
  0,                                      !- X Origin {m}
  0,                                      !- Y Origin {m}
  0,                                      !- Z Origin {m}
  {596c62b5-d88a-456a-8221-b8fbce766819}, !- Building Story Name
  {3772a553-b09e-4baf-a43f-e38105dcc36e}, !- Thermal Zone Name
  Yes,                                    !- Part of Total Floor Area
  ;                                       !- Design Specification Outdoor Air Object Name

OS:ThermalZone,
  {197dc0cd-84e6-476c-ba1e-54f5bf0fb25d}, !- Handle
  SMstore2 Thermal Zone,                  !- Name
  1,                                      !- Multiplier
  ,                                       !- Ceiling Height {m}
  ,                                       !- Volume {m3}
  ,                                       !- Floor Area {m2}
  ,                                       !- Zone Inside Convection Algorithm
  ,                                       !- Zone Outside Convection Algorithm
  ,                                       !- Zone Conditioning Equipment List Name
  {8353fbbf-33e1-4bbf-90b2-85bb2ab49b2b}, !- Zone Air Inlet Port List
  {4b5477e2-f381-4fa6-badd-28ee1e85a274}, !- Zone Air Exhaust Port List
  {635d3ecd-9a77-4f79-9a6f-c30e22fc5039}, !- Zone Air Node Name
  ,                                       !- Zone Return Air Node Name
  ,                                       !- Primary Daylighting Control Name
  ,                                       !- Fraction of Zone Controlled by Primary Daylighting Control
  ,                                       !- Secondary Daylighting Control Name
  ,                                       !- Fraction of Zone Controlled by Secondary Daylighting Control
  ,                                       !- Illuminance Map Name
  ,                                       !- Group Rendering Name
  {cbbabc86-f165-4267-8563-852b766ba852}, !- Thermostat Name
  Yes;                                    !- Use Ideal Air Loads

OS:Node,
  {6769c90d-3bf3-4f36-a9f0-a04370cf94fb}, !- Handle
  {f7a91646-0a58-4d7f-aa91-f3886dd62121}, !- Name
  {635d3ecd-9a77-4f79-9a6f-c30e22fc5039}, !- Inlet Port
  ;                                       !- Outlet Port

OS:Connection,
  {635d3ecd-9a77-4f79-9a6f-c30e22fc5039}, !- Handle
  {6784dfe7-db86-45a1-86e6-cac4d391a88a}, !- Name
  {197dc0cd-84e6-476c-ba1e-54f5bf0fb25d}, !- Source Object
  11,                                     !- Outlet Port
  {6769c90d-3bf3-4f36-a9f0-a04370cf94fb}, !- Target Object
  2;                                      !- Inlet Port

OS:PortList,
  {8353fbbf-33e1-4bbf-90b2-85bb2ab49b2b}, !- Handle
  {1b856aba-5f28-4c99-a50d-1b086c4b4320}, !- Name
  {197dc0cd-84e6-476c-ba1e-54f5bf0fb25d}; !- HVAC Component

OS:PortList,
  {4b5477e2-f381-4fa6-badd-28ee1e85a274}, !- Handle
  {85dfde84-aae3-4f86-8a6f-6050efa34a00}, !- Name
  {197dc0cd-84e6-476c-ba1e-54f5bf0fb25d}; !- HVAC Component

OS:Sizing:Zone,
  {8e13c5a2-5b01-45b9-a463-a95ab0d115f8}, !- Handle
  {197dc0cd-84e6-476c-ba1e-54f5bf0fb25d}, !- Zone or ZoneList Name
  14,                                     !- Zone Cooling Design Supply Air Temperature {C}
  40,                                     !- Zone Heating Design Supply Air Temperature {C}
  0.0085,                                 !- Zone Cooling Design Supply Air Humidity Ratio {kg-H2O/kg-air}
  0.008,                                  !- Zone Heating Design Supply Air Humidity Ratio {kg-H2O/kg-air}
  ,                                       !- Zone Heating Sizing Factor
  ,                                       !- Zone Cooling Sizing Factor
  DesignDay,                              !- Cooling Design Air Flow Method
  ,                                       !- Cooling Design Air Flow Rate {m3/s}
  ,                                       !- Cooling Minimum Air Flow per Zone Floor Area {m3/s-m2}
  ,                                       !- Cooling Minimum Air Flow {m3/s}
  ,                                       !- Cooling Minimum Air Flow Fraction
  DesignDay,                              !- Heating Design Air Flow Method
  ,                                       !- Heating Design Air Flow Rate {m3/s}
  ,                                       !- Heating Maximum Air Flow per Zone Floor Area {m3/s-m2}
  ,                                       !- Heating Maximum Air Flow {m3/s}
  ,                                       !- Heating Maximum Air Flow Fraction
  ,                                       !- Design Zone Air Distribution Effectiveness in Cooling Mode
  ;                                       !- Design Zone Air Distribution Effectiveness in Heating Mode

OS:ZoneHVAC:EquipmentList,
  {75b162f1-9899-4f51-bb73-1840b7ad7073}, !- Handle
  {d232a618-4265-4cfb-ac10-d4655e852b53}, !- Name
  {197dc0cd-84e6-476c-ba1e-54f5bf0fb25d}; !- Thermal Zone

OS:Space,
  {555acd13-4685-488c-8625-5d16e4e098f1}, !- Handle
  SMstore2,                               !- Name
  {1e0f3431-a956-4e4a-8a2c-f796c9e557f5}, !- Space Type Name
  ,                                       !- Default Construction Set Name
  ,                                       !- Default Schedule Set Name
  0,                                      !- Direction of Relative North {deg}
  0,                                      !- X Origin {m}
  0,                                      !- Y Origin {m}
  0,                                      !- Z Origin {m}
  {596c62b5-d88a-456a-8221-b8fbce766819}, !- Building Story Name
  {197dc0cd-84e6-476c-ba1e-54f5bf0fb25d}, !- Thermal Zone Name
  Yes,                                    !- Part of Total Floor Area
  ;                                       !- Design Specification Outdoor Air Object Name

OS:Surface,
  {abc89d08-7d92-454d-8882-d8b3da2a1f02}, !- Handle
  LGstore2_Wall_1,                        !- Name
  Wall,                                   !- Surface Type
  ,                                       !- Construction Name
  {c4a9cf1b-6cb5-4e4f-af01-d2299148d599}, !- Space Name
  Outdoors,                               !- Outside Boundary Condition
  ,                                       !- Outside Boundary Condition Object
  SunExposed,                             !- Sun Exposure
  WindExposed,                            !- Wind Exposure
  ,                                       !- View Factor to Ground
  ,                                       !- Number of Vertices
  45.72, 0, 5.18,                         !- X,Y,Z Vertex 1 {m}
  45.72, 0, 0,                            !- X,Y,Z Vertex 2 {m}
  60.96, 0, 0,                            !- X,Y,Z Vertex 3 {m}
  60.96, 0, 5.18;                         !- X,Y,Z Vertex 4 {m}

OS:ThermalZone,
  {58dfc7c4-88a8-40d2-8ca2-e32cc3848fba}, !- Handle
  LGstore2 Thermal Zone,                  !- Name
  1,                                      !- Multiplier
  ,                                       !- Ceiling Height {m}
  ,                                       !- Volume {m3}
  ,                                       !- Floor Area {m2}
  ,                                       !- Zone Inside Convection Algorithm
  ,                                       !- Zone Outside Convection Algorithm
  ,                                       !- Zone Conditioning Equipment List Name
  {674a79d9-bf32-48c9-8fa7-9142152f49cb}, !- Zone Air Inlet Port List
  {0216ae38-bd64-447c-93c6-08efbc6c6096}, !- Zone Air Exhaust Port List
  {71bdb74d-fe91-403b-b906-7f89ff101f30}, !- Zone Air Node Name
  ,                                       !- Zone Return Air Node Name
  ,                                       !- Primary Daylighting Control Name
  ,                                       !- Fraction of Zone Controlled by Primary Daylighting Control
  ,                                       !- Secondary Daylighting Control Name
  ,                                       !- Fraction of Zone Controlled by Secondary Daylighting Control
  ,                                       !- Illuminance Map Name
  ,                                       !- Group Rendering Name
  {cbbabc86-f165-4267-8563-852b766ba852}, !- Thermostat Name
  Yes;                                    !- Use Ideal Air Loads

OS:Node,
  {456c1a73-a71c-4596-907c-c39ef2a2b9e5}, !- Handle
  {9247f66a-bdec-4cc2-b94b-289f09087cf4}, !- Name
  {71bdb74d-fe91-403b-b906-7f89ff101f30}, !- Inlet Port
  ;                                       !- Outlet Port

OS:Connection,
  {71bdb74d-fe91-403b-b906-7f89ff101f30}, !- Handle
  {d6b842a7-bc9e-46b7-aacf-2ad11cf7cbf2}, !- Name
  {58dfc7c4-88a8-40d2-8ca2-e32cc3848fba}, !- Source Object
  11,                                     !- Outlet Port
  {456c1a73-a71c-4596-907c-c39ef2a2b9e5}, !- Target Object
  2;                                      !- Inlet Port

OS:PortList,
  {674a79d9-bf32-48c9-8fa7-9142152f49cb}, !- Handle
  {7c0b3314-d237-4d33-bade-9cb41912d373}, !- Name
  {58dfc7c4-88a8-40d2-8ca2-e32cc3848fba}; !- HVAC Component

OS:PortList,
  {0216ae38-bd64-447c-93c6-08efbc6c6096}, !- Handle
  {0428f332-456a-4c7e-b3ac-73746d05779e}, !- Name
  {58dfc7c4-88a8-40d2-8ca2-e32cc3848fba}; !- HVAC Component

OS:Sizing:Zone,
  {9cf0b216-eed8-4383-9488-6ba6730ba9e5}, !- Handle
  {58dfc7c4-88a8-40d2-8ca2-e32cc3848fba}, !- Zone or ZoneList Name
  14,                                     !- Zone Cooling Design Supply Air Temperature {C}
  40,                                     !- Zone Heating Design Supply Air Temperature {C}
  0.0085,                                 !- Zone Cooling Design Supply Air Humidity Ratio {kg-H2O/kg-air}
  0.008,                                  !- Zone Heating Design Supply Air Humidity Ratio {kg-H2O/kg-air}
  ,                                       !- Zone Heating Sizing Factor
  ,                                       !- Zone Cooling Sizing Factor
  DesignDay,                              !- Cooling Design Air Flow Method
  ,                                       !- Cooling Design Air Flow Rate {m3/s}
  ,                                       !- Cooling Minimum Air Flow per Zone Floor Area {m3/s-m2}
  ,                                       !- Cooling Minimum Air Flow {m3/s}
  ,                                       !- Cooling Minimum Air Flow Fraction
  DesignDay,                              !- Heating Design Air Flow Method
  ,                                       !- Heating Design Air Flow Rate {m3/s}
  ,                                       !- Heating Maximum Air Flow per Zone Floor Area {m3/s-m2}
  ,                                       !- Heating Maximum Air Flow {m3/s}
  ,                                       !- Heating Maximum Air Flow Fraction
  ,                                       !- Design Zone Air Distribution Effectiveness in Cooling Mode
  ;                                       !- Design Zone Air Distribution Effectiveness in Heating Mode

OS:ZoneHVAC:EquipmentList,
  {9b810378-d880-4761-b80b-439c42c35127}, !- Handle
  {4a262c0b-4569-40ec-8050-ca81b1cdcbce}, !- Name
  {58dfc7c4-88a8-40d2-8ca2-e32cc3848fba}; !- Thermal Zone

OS:Space,
  {c4a9cf1b-6cb5-4e4f-af01-d2299148d599}, !- Handle
  LGstore2,                               !- Name
  {1e0f3431-a956-4e4a-8a2c-f796c9e557f5}, !- Space Type Name
  ,                                       !- Default Construction Set Name
  ,                                       !- Default Schedule Set Name
  0,                                      !- Direction of Relative North {deg}
  0,                                      !- X Origin {m}
  0,                                      !- Y Origin {m}
  0,                                      !- Z Origin {m}
  {596c62b5-d88a-456a-8221-b8fbce766819}, !- Building Story Name
  {58dfc7c4-88a8-40d2-8ca2-e32cc3848fba}, !- Thermal Zone Name
  Yes,                                    !- Part of Total Floor Area
  ;                                       !- Design Specification Outdoor Air Object Name

OS:ThermalZone,
  {68f0f7f4-c84e-45b3-9c68-9001c4df449d}, !- Handle
  SMstore5 Thermal Zone,                  !- Name
  1,                                      !- Multiplier
  ,                                       !- Ceiling Height {m}
  ,                                       !- Volume {m3}
  ,                                       !- Floor Area {m2}
  ,                                       !- Zone Inside Convection Algorithm
  ,                                       !- Zone Outside Convection Algorithm
  ,                                       !- Zone Conditioning Equipment List Name
  {6c9ac91d-0c6c-4e62-a08a-b5f9dcaa7561}, !- Zone Air Inlet Port List
  {8d42fd2d-f5f6-4776-a3d3-3c183ca44a5a}, !- Zone Air Exhaust Port List
  {ba6516b1-4150-4cbc-b807-22824bd78da5}, !- Zone Air Node Name
  ,                                       !- Zone Return Air Node Name
  ,                                       !- Primary Daylighting Control Name
  ,                                       !- Fraction of Zone Controlled by Primary Daylighting Control
  ,                                       !- Secondary Daylighting Control Name
  ,                                       !- Fraction of Zone Controlled by Secondary Daylighting Control
  ,                                       !- Illuminance Map Name
  ,                                       !- Group Rendering Name
  {cbbabc86-f165-4267-8563-852b766ba852}, !- Thermostat Name
  Yes;                                    !- Use Ideal Air Loads

OS:Node,
  {dcfc6a83-c6b5-46b7-984a-7247e3f6bb74}, !- Handle
  {669a97c5-a2ae-4f11-a656-82c4e80dd828}, !- Name
  {ba6516b1-4150-4cbc-b807-22824bd78da5}, !- Inlet Port
  ;                                       !- Outlet Port

OS:Connection,
  {ba6516b1-4150-4cbc-b807-22824bd78da5}, !- Handle
  {a27fa36b-846a-4757-9e4e-9f8e2e8c8643}, !- Name
  {68f0f7f4-c84e-45b3-9c68-9001c4df449d}, !- Source Object
  11,                                     !- Outlet Port
  {dcfc6a83-c6b5-46b7-984a-7247e3f6bb74}, !- Target Object
  2;                                      !- Inlet Port

OS:PortList,
  {6c9ac91d-0c6c-4e62-a08a-b5f9dcaa7561}, !- Handle
  {da45779c-098c-43c7-ba75-0f0a6c62faae}, !- Name
  {68f0f7f4-c84e-45b3-9c68-9001c4df449d}; !- HVAC Component

OS:PortList,
  {8d42fd2d-f5f6-4776-a3d3-3c183ca44a5a}, !- Handle
  {22e6868e-6258-4de0-815b-15987748d6f4}, !- Name
  {68f0f7f4-c84e-45b3-9c68-9001c4df449d}; !- HVAC Component

OS:Sizing:Zone,
  {c713649f-21cf-4a51-9dbe-531b659dc172}, !- Handle
  {68f0f7f4-c84e-45b3-9c68-9001c4df449d}, !- Zone or ZoneList Name
  14,                                     !- Zone Cooling Design Supply Air Temperature {C}
  40,                                     !- Zone Heating Design Supply Air Temperature {C}
  0.0085,                                 !- Zone Cooling Design Supply Air Humidity Ratio {kg-H2O/kg-air}
  0.008,                                  !- Zone Heating Design Supply Air Humidity Ratio {kg-H2O/kg-air}
  ,                                       !- Zone Heating Sizing Factor
  ,                                       !- Zone Cooling Sizing Factor
  DesignDay,                              !- Cooling Design Air Flow Method
  ,                                       !- Cooling Design Air Flow Rate {m3/s}
  ,                                       !- Cooling Minimum Air Flow per Zone Floor Area {m3/s-m2}
  ,                                       !- Cooling Minimum Air Flow {m3/s}
  ,                                       !- Cooling Minimum Air Flow Fraction
  DesignDay,                              !- Heating Design Air Flow Method
  ,                                       !- Heating Design Air Flow Rate {m3/s}
  ,                                       !- Heating Maximum Air Flow per Zone Floor Area {m3/s-m2}
  ,                                       !- Heating Maximum Air Flow {m3/s}
  ,                                       !- Heating Maximum Air Flow Fraction
  ,                                       !- Design Zone Air Distribution Effectiveness in Cooling Mode
  ;                                       !- Design Zone Air Distribution Effectiveness in Heating Mode

OS:ZoneHVAC:EquipmentList,
  {4b2838e2-0ff7-4a9d-a4ca-29f51d398478}, !- Handle
  {f78ee822-9e6d-49a0-aa80-8affc336d625}, !- Name
  {68f0f7f4-c84e-45b3-9c68-9001c4df449d}; !- Thermal Zone

OS:Space,
  {01ce7021-501f-4fbf-95dd-bd4ced9dbf43}, !- Handle
  SMstore5,                               !- Name
  {1e0f3431-a956-4e4a-8a2c-f796c9e557f5}, !- Space Type Name
  ,                                       !- Default Construction Set Name
  ,                                       !- Default Schedule Set Name
  0,                                      !- Direction of Relative North {deg}
  0,                                      !- X Origin {m}
  0,                                      !- Y Origin {m}
  0,                                      !- Z Origin {m}
  {596c62b5-d88a-456a-8221-b8fbce766819}, !- Building Story Name