
OS:Version,
  {d1a899ea-dc41-4eb9-bf3b-6f7fafec3310}, !- Handle
  1.6.0;                                  !- Version Identifier

OS:Site,
  {df06ac61-2065-4055-87b8-b67444fe3ad2}, !- Handle
  Calgary Int'l_AB_CAN,                   !- Name
  51.12,                                  !- Latitude {deg}
  -114.02,                                !- Longitude {deg}
  -7,                                     !- Time Zone {hr}
  1084,                                   !- Elevation {m}
  City;                                   !- Terrain

OS:SimulationControl,
  {9fcf4947-b65d-44c5-965c-4549305c8f3a}, !- Handle
  Yes,                                    !- Do Zone Sizing Calculation
  Yes,                                    !- Do System Sizing Calculation
  Yes,                                    !- Do Plant Sizing Calculation
  No,                                     !- Run Simulation for Sizing Periods
  Yes,                                    !- Run Simulation for Weather File Run Periods
  0.04,                                   !- Loads Convergence Tolerance Value
  0.2,                                    !- Temperature Convergence Tolerance Value {deltaC}
  FullInteriorAndExterior,                !- Solar Distribution
  25,                                     !- Maximum Number of Warmup Days
  6;                                      !- Minimum Number of Warmup Days

OS:ThermalZone,
  {2a17b874-cc8c-42ac-a9ae-f05e439785de}, !- Handle
  Sales Thermal Zone,                     !- Name
  1,                                      !- Multiplier
  ,                                       !- Ceiling Height {m}
  ,                                       !- Volume {m3}
  ,                                       !- Floor Area {m2}
  ,                                       !- Zone Inside Convection Algorithm
  ,                                       !- Zone Outside Convection Algorithm
  ,                                       !- Zone Conditioning Equipment List Name
  {106d1271-1382-407b-af29-99dfef03014f}, !- Zone Air Inlet Port List
  {2cd66284-358d-49a8-b806-7d0d84cbbeb0}, !- Zone Air Exhaust Port List
  {f97fb86e-6748-477c-bb7c-bb1538abfe4c}, !- Zone Air Node Name
  ,                                       !- Zone Return Air Node Name
  ,                                       !- Primary Daylighting Control Name
  ,                                       !- Fraction of Zone Controlled by Primary Daylighting Control
  ,                                       !- Secondary Daylighting Control Name
  ,                                       !- Fraction of Zone Controlled by Secondary Daylighting Control
  ,                                       !- Illuminance Map Name
  ,                                       !- Group Rendering Name
  {650eeded-dd53-46f7-b864-dabefe9a30ae}, !- Thermostat Name
  Yes;                                    !- Use Ideal Air Loads

OS:Node,
  {fe0c75a6-bf77-4bf8-b201-865955de7e61}, !- Handle
  {44cc59db-7cbe-45e1-9019-c183a88b950f}, !- Name
  {f97fb86e-6748-477c-bb7c-bb1538abfe4c}, !- Inlet Port
  ;                                       !- Outlet Port

OS:Connection,
  {f97fb86e-6748-477c-bb7c-bb1538abfe4c}, !- Handle
  {4f638a31-30f4-46bd-8f08-f2b2315dcf32}, !- Name
  {2a17b874-cc8c-42ac-a9ae-f05e439785de}, !- Source Object
  11,                                     !- Outlet Port
  {fe0c75a6-bf77-4bf8-b201-865955de7e61}, !- Target Object
  2;                                      !- Inlet Port

OS:PortList,
  {106d1271-1382-407b-af29-99dfef03014f}, !- Handle
  {75b4eeda-bde3-4dd7-bf09-147327d24423}, !- Name
  {2a17b874-cc8c-42ac-a9ae-f05e439785de}; !- HVAC Component

OS:PortList,
  {2cd66284-358d-49a8-b806-7d0d84cbbeb0}, !- Handle
  {18213ff5-d6f1-4117-9811-4e48c1dd5f5c}, !- Name
  {2a17b874-cc8c-42ac-a9ae-f05e439785de}; !- HVAC Component

OS:Sizing:Zone,
  {d2992d9f-4389-4275-bae4-0b25e9219ba9}, !- Handle
  {2a17b874-cc8c-42ac-a9ae-f05e439785de}, !- Zone or ZoneList Name
  14,                                     !- Zone Cooling Design Supply Air Temperature {C}
  40,                                     !- Zone Heating Design Supply Air Temperature {C}
  0.0085,                                 !- Zone Cooling Design Supply Air Humidity Ratio {kg-H2O/kg-air}
  0.008,                                  !- Zone Heating Design Supply Air Humidity Ratio {kg-H2O/kg-air}
  ,                                       !- Zone Heating Sizing Factor
  ,                                       !- Zone Cooling Sizing Factor
  DesignDay,                              !- Cooling Design Air Flow Method
  ,                                       !- Cooling Design Air Flow Rate {m3/s}
  ,                                       !- Cooling Minimum Air Flow per Zone Floor Area {m3/s-m2}
  ,                                       !- Cooling Minimum Air Flow {m3/s}
  ,                                       !- Cooling Minimum Air Flow Fraction
  DesignDay,                              !- Heating Design Air Flow Method
  ,                                       !- Heating Design Air Flow Rate {m3/s}
  ,                                       !- Heating Maximum Air Flow per Zone Floor Area {m3/s-m2}
  ,                                       !- Heating Maximum Air Flow {m3/s}
  ,                                       !- Heating Maximum Air Flow Fraction
  ,                                       !- Design Zone Air Distribution Effectiveness in Cooling Mode
  ;                                       !- Design Zone Air Distribution Effectiveness in Heating Mode

OS:ZoneHVAC:EquipmentList,
  {4745622c-0970-4d2b-bdb6-76d02b899172}, !- Handle
  {3ad98f70-e184-4127-b049-ef945e52161a}, !- Name
  {2a17b874-cc8c-42ac-a9ae-f05e439785de}; !- Thermal Zone

OS:Space,
  {e4ae99a7-6928-4d15-8fa7-79b4ccff92a4}, !- Handle
  Sales,                                  !- Name
  {ee973b2f-831d-4f5a-85ed-e12fae6d2eae}, !- Space Type Name
  ,                                       !- Default Construction Set Name
  ,                                       !- Default Schedule Set Name
  0,                                      !- Direction of Relative North {deg}
  0,                                      !- X Origin {m}
  0,                                      !- Y Origin {m}
  0,                                      !- Z Origin {m}
  {0d3cb3e2-56db-427f-b984-496183264aa8}, !- Building Story Name
  {2a17b874-cc8c-42ac-a9ae-f05e439785de}, !- Thermal Zone Name
  Yes,                                    !- Part of Total Floor Area
  ;                                       !- Design Specification Outdoor Air Object Name

OS:ThermalZone,
  {dedd9d0f-fde1-42ca-bf4d-987ff9dca006}, !- Handle
  Produce Thermal Zone,                   !- Name
  1,                                      !- Multiplier
  ,                                       !- Ceiling Height {m}
  ,                                       !- Volume {m3}
  ,                                       !- Floor Area {m2}
  ,                                       !- Zone Inside Convection Algorithm
  ,                                       !- Zone Outside Convection Algorithm
  ,                                       !- Zone Conditioning Equipment List Name
  {c5d6546b-0efb-4523-9eb0-b9caa25c791d}, !- Zone Air Inlet Port List
  {99b7513e-e6cf-4162-8693-e1efcc3d720d}, !- Zone Air Exhaust Port List
  {53daf27b-8091-42c1-835f-205657603840}, !- Zone Air Node Name
  ,                                       !- Zone Return Air Node Name
  ,                                       !- Primary Daylighting Control Name
  ,                                       !- Fraction of Zone Controlled by Primary Daylighting Control
  ,                                       !- Secondary Daylighting Control Name
  ,                                       !- Fraction of Zone Controlled by Secondary Daylighting Control
  ,                                       !- Illuminance Map Name
  ,                                       !- Group Rendering Name
  {650eeded-dd53-46f7-b864-dabefe9a30ae}, !- Thermostat Name
  Yes;                                    !- Use Ideal Air Loads

OS:Node,
  {e91660cb-e72c-4397-a612-177748e9e93a}, !- Handle
  {622122d4-c134-45bc-8fe9-5853140cc32c}, !- Name
  {53daf27b-8091-42c1-835f-205657603840}, !- Inlet Port
  ;                                       !- Outlet Port

OS:Connection,
  {53daf27b-8091-42c1-835f-205657603840}, !- Handle
  {9dcb511c-284f-40cb-a68c-53cf69809adc}, !- Name
  {dedd9d0f-fde1-42ca-bf4d-987ff9dca006}, !- Source Object
  11,                                     !- Outlet Port
  {e91660cb-e72c-4397-a612-177748e9e93a}, !- Target Object
  2;                                      !- Inlet Port

OS:PortList,
  {c5d6546b-0efb-4523-9eb0-b9caa25c791d}, !- Handle
  {6a8d2179-2df7-419b-8c05-0813ffc68f1c}, !- Name
  {dedd9d0f-fde1-42ca-bf4d-987ff9dca006}; !- HVAC Component

OS:PortList,
  {99b7513e-e6cf-4162-8693-e1efcc3d720d}, !- Handle
  {69841f0a-12b1-4db2-885f-34786e409487}, !- Name
  {dedd9d0f-fde1-42ca-bf4d-987ff9dca006}; !- HVAC Component

OS:Sizing:Zone,
  {3db5b247-9e4b-4464-8ff3-abaac688b5ea}, !- Handle
  {dedd9d0f-fde1-42ca-bf4d-987ff9dca006}, !- Zone or ZoneList Name
  14,                                     !- Zone Cooling Design Supply Air Temperature {C}
  40,                                     !- Zone Heating Design Supply Air Temperature {C}
  0.0085,                                 !- Zone Cooling Design Supply Air Humidity Ratio {kg-H2O/kg-air}
  0.008,                                  !- Zone Heating Design Supply Air Humidity Ratio {kg-H2O/kg-air}
  ,                                       !- Zone Heating Sizing Factor
  ,                                       !- Zone Cooling Sizing Factor
  DesignDay,                              !- Cooling Design Air Flow Method
  ,                                       !- Cooling Design Air Flow Rate {m3/s}
  ,                                       !- Cooling Minimum Air Flow per Zone Floor Area {m3/s-m2}
  ,                                       !- Cooling Minimum Air Flow {m3/s}
  ,                                       !- Cooling Minimum Air Flow Fraction
  DesignDay,                              !- Heating Design Air Flow Method
  ,                                       !- Heating Design Air Flow Rate {m3/s}
  ,                                       !- Heating Maximum Air Flow per Zone Floor Area {m3/s-m2}
  ,                                       !- Heating Maximum Air Flow {m3/s}
  ,                                       !- Heating Maximum Air Flow Fraction
  ,                                       !- Design Zone Air Distribution Effectiveness in Cooling Mode
  ;                                       !- Design Zone Air Distribution Effectiveness in Heating Mode

OS:ZoneHVAC:EquipmentList,
  {882eb39c-b62f-49a5-aa29-93fbeffc3f44}, !- Handle
  {3caf881b-5ddd-453b-90e7-c9cfeedf9479}, !- Name
  {dedd9d0f-fde1-42ca-bf4d-987ff9dca006}; !- Thermal Zone

OS:Space,
  {ebae0cea-bdc5-4c8e-8198-8502f9ef6867}, !- Handle
  Produce,                                !- Name
  {ee973b2f-831d-4f5a-85ed-e12fae6d2eae}, !- Space Type Name
  ,                                       !- Default Construction Set Name
  ,                                       !- Default Schedule Set Name
  0,                                      !- Direction of Relative North {deg}
  0,                                      !- X Origin {m}
  0,                                      !- Y Origin {m}
  0,                                      !- Z Origin {m}
  {0d3cb3e2-56db-427f-b984-496183264aa8}, !- Building Story Name
  {dedd9d0f-fde1-42ca-bf4d-987ff9dca006}, !- Thermal Zone Name
  Yes,                                    !- Part of Total Floor Area
  ;                                       !- Design Specification Outdoor Air Object Name

OS:Curve:Cubic,
  {6c7be4fe-706a-4806-acb9-381539576663}, !- Handle
  Sales_Case:5_WALKINFREEZERSingleShelfHorizontal_LatentEnergyMult, !- Name
  0.020376,                               !- Coefficient1 Constant
  0.00024378,                             !- Coefficient2 x
  1.14e-005,                              !- Coefficient3 x**2
  1.811e-007,                             !- Coefficient4 x**3
  -35,                                    !- Minimum Value of x {BasedOnField A2}
  20;                                     !- Maximum Value of x {BasedOnField A2}

OS:ThermalZone,
  {1952f256-9487-440b-8b63-e99097b8861e}, !- Handle
  Deli Thermal Zone,                      !- Name
  1,                                      !- Multiplier
  ,                                       !- Ceiling Height {m}
  ,                                       !- Volume {m3}
  ,                                       !- Floor Area {m2}
  ,                                       !- Zone Inside Convection Algorithm
  ,                                       !- Zone Outside Convection Algorithm
  ,                                       !- Zone Conditioning Equipment List Name
  {be6fb698-0022-4451-ad64-01d6131a18a9}, !- Zone Air Inlet Port List
  {c2e62be0-68df-4883-9767-a5018391d03c}, !- Zone Air Exhaust Port List
  {8feff72d-1e09-44e8-a243-204a6154c7e4}, !- Zone Air Node Name
  ,                                       !- Zone Return Air Node Name
  ,                                       !- Primary Daylighting Control Name
  ,                                       !- Fraction of Zone Controlled by Primary Daylighting Control
  ,                                       !- Secondary Daylighting Control Name
  ,                                       !- Fraction of Zone Controlled by Secondary Daylighting Control
  ,                                       !- Illuminance Map Name
  ,                                       !- Group Rendering Name
  {650eeded-dd53-46f7-b864-dabefe9a30ae}, !- Thermostat Name
  Yes;                                    !- Use Ideal Air Loads

OS:Node,
  {b5285b1b-b0d9-4623-a0be-0f9f275ddbc5}, !- Handle
  {e82fd42a-bf84-45ee-831f-9482584d5f23}, !- Name
  {8feff72d-1e09-44e8-a243-204a6154c7e4}, !- Inlet Port
  ;                                       !- Outlet Port

OS:Connection,
  {8feff72d-1e09-44e8-a243-204a6154c7e4}, !- Handle
  {a343de43-21fc-4c8c-a800-72b190dee69e}, !- Name
  {1952f256-9487-440b-8b63-e99097b8861e}, !- Source Object
  11,                                     !- Outlet Port
  {b5285b1b-b0d9-4623-a0be-0f9f275ddbc5}, !- Target Object
  2;                                      !- Inlet Port

OS:PortList,
  {be6fb698-0022-4451-ad64-01d6131a18a9}, !- Handle
  {d2eb22c5-f5d4-41f7-967d-1c11bb4abcea}, !- Name
  {1952f256-9487-440b-8b63-e99097b8861e}; !- HVAC Component

OS:PortList,
  {c2e62be0-68df-4883-9767-a5018391d03c}, !- Handle
  {3c6ec49e-9be4-43aa-9aca-da1ea9c52b51}, !- Name
  {1952f256-9487-440b-8b63-e99097b8861e}; !- HVAC Component

OS:Sizing:Zone,
  {b70efcf1-40ec-45f8-a223-31bae773de4d}, !- Handle
  {1952f256-9487-440b-8b63-e99097b8861e}, !- Zone or ZoneList Name
  14,                                     !- Zone Cooling Design Supply Air Temperature {C}
  40,                                     !- Zone Heating Design Supply Air Temperature {C}
  0.0085,                                 !- Zone Cooling Design Supply Air Humidity Ratio {kg-H2O/kg-air}
  0.008,                                  !- Zone Heating Design Supply Air Humidity Ratio {kg-H2O/kg-air}
  ,                                       !- Zone Heating Sizing Factor
  ,                                       !- Zone Cooling Sizing Factor
  DesignDay,                              !- Cooling Design Air Flow Method
  ,                                       !- Cooling Design Air Flow Rate {m3/s}
  ,                                       !- Cooling Minimum Air Flow per Zone Floor Area {m3/s-m2}
  ,                                       !- Cooling Minimum Air Flow {m3/s}
  ,                                       !- Cooling Minimum Air Flow Fraction
  DesignDay,                              !- Heating Design Air Flow Method
  ,                                       !- Heating Design Air Flow Rate {m3/s}
  ,                                       !- Heating Maximum Air Flow per Zone Floor Area {m3/s-m2}
  ,                                       !- Heating Maximum Air Flow {m3/s}
  ,                                       !- Heating Maximum Air Flow Fraction
  ,                                       !- Design Zone Air Distribution Effectiveness in Cooling Mode
  ;                                       !- Design Zone Air Distribution Effectiveness in Heating Mode

OS:ZoneHVAC:EquipmentList,
  {124b6903-43ce-4698-bb99-04da93761d96}, !- Handle
  {006326a0-ff00-445c-994b-4c6bab2acefc}, !- Name
  {1952f256-9487-440b-8b63-e99097b8861e}; !- Thermal Zone

OS:Space,
  {83524cda-8d7f-4cb0-bf9d-ea15cd1e7c7d}, !- Handle
  Deli,                                   !- Name
  {ee973b2f-831d-4f5a-85ed-e12fae6d2eae}, !- Space Type Name
  ,                                       !- Default Construction Set Name
  ,                                       !- Default Schedule Set Name
  0,                                      !- Direction of Relative North {deg}
  0,                                      !- X Origin {m}
  0,                                      !- Y Origin {m}
  0,                                      !- Z Origin {m}
  {0d3cb3e2-56db-427f-b984-496183264aa8}, !- Building Story Name
  {1952f256-9487-440b-8b63-e99097b8861e}, !- Thermal Zone Name
  Yes,                                    !- Part of Total Floor Area
  ;                                       !- Design Specification Outdoor Air Object Name

OS:Meter,
  {c9f409b5-b24b-4d91-8aa4-ff3b09d5a852}, !- Handle
  Gas:Facility,                           !- Name
  hourly,                                 !- Reporting Frequency
  False,                                  !- Meter File Only
  False;                                  !- Cumulative

OS:Curve:Quadratic,
  {5ba8b9a8-7e83-440f-aff3-e4ea04b601b5}, !- Handle
  Measured_CoolCStandard10Ton_CapFF,      !- Name
  0.7685,                                 !- Coefficient1 Constant
  0.2315,                                 !- Coefficient2 x
  0,                                      !- Coefficient3 x**2
  0.776,                                  !- Minimum Value of x {BasedOnField A2}
  1.197;                                  !- Maximum Value of x {BasedOnField A2}

OS:Surface,
  {42a6ac57-9c85-4ad7-8b56-c118ea970d7c}, !- Handle
  Deli_Wall_West-PPAutoCreateOther,       !- Name
  Wall,                                   !- Surface Type
  ,                                       !- Construction Name
  {e4ae99a7-6928-4d15-8fa7-79b4ccff92a4}, !- Space Name
  Surface,                                !- Outside Boundary Condition
  {bf198242-2827-469d-9f99-5301ffd44c66}, !- Outside Boundary Condition Object
  NoSun,                                  !- Sun Exposure
  NoWind,                                 !- Wind Exposure
  ,                                       !- View Factor to Ground
  ,                                       !- Number of Vertices
  26.8875, -9.1251, 6.096,                !- X,Y,Z Vertex 1 {m}
  26.8875, -9.1251, 0,                    !- X,Y,Z Vertex 2 {m}
  26.8875, 13.5765, 0,                    !- X,Y,Z Vertex 3 {m}
  26.8875, 13.5765, 6.096;                !- X,Y,Z Vertex 4 {m}

OS:Curve:Cubic,
  {cfd8b861-3a94-4a58-9cda-6a54fbfb297c}, !- Handle
  Sales_Case:3_GLASSDOORFROZENFOODSingleShelfHorizontal_LatentEnergyMult, !- Name
  0.020376,                               !- Coefficient1 Constant
  0.00024378,                             !- Coefficient2 x
  1.14e-005,                              !- Coefficient3 x**2
  1.811e-007,                             !- Coefficient4 x**3
  -35,                                    !- Minimum Value of x {BasedOnField A2}
  20;                                     !- Maximum Value of x {BasedOnField A2}

OS:Surface,
  {feeb393c-d916-4a96-a0da-fdbea0726329}, !- Handle
  Produce_Wall_North,                     !- Name
  Wall,                                   !- Surface Type
  ,                                       !- Construction Name
  {ebae0cea-bdc5-4c8e-8198-8502f9ef6867}, !- Space Name
  Surface,                                !- Outside Boundary Condition
  {b6a2e5de-5d7e-409b-8bb8-5a7ede7c1390}, !- Outside Boundary Condition Object
  NoSun,                                  !- Sun Exposure
  NoWind,                                 !- Wind Exposure
  ,                                       !- View Factor to Ground
  ,                                       !- Number of Vertices
  -26.1698, 13.5765, 6.096,               !- X,Y,Z Vertex 1 {m}
  -26.1698, 13.5765, 0,                   !- X,Y,Z Vertex 2 {m}
  -42.4038, 13.5765, 0,                   !- X,Y,Z Vertex 3 {m}
  -42.4038, 13.5765, 6.096;               !- X,Y,Z Vertex 4 {m}

OS:Meter,
  {94bace00-f44f-493d-a502-0fc32e9fdc6b}, !- Handle
  Pumps:Electricity,                      !- Name
  hourly,                                 !- Reporting Frequency
  False,                                  !- Meter File Only
  False;                                  !- Cumulative

OS:Meter,
  {d8cbc887-4481-4da5-b927-f73de40aa692}, !- Handle
  InteriorEquipment:Gas,                  !- Name
  hourly,                                 !- Reporting Frequency
  False,                                  !- Meter File Only
  False;                                  !- Cumulative

OS:Surface,
  {8b4b3673-139b-4b83-beb8-8d46c3cffc28}, !- Handle
  Office_Wall_West,                       !- Name
  Wall,                                   !- Surface Type
  ,                                       !- Construction Name
  {ace324d0-5d87-4ef3-a707-25820f7f08cb}, !- Space Name
  Surface,                                !- Outside Boundary Condition
  {6b330d94-c5a8-4e51-9239-301c9493b48d}, !- Outside Boundary Condition Object
  NoSun,                                  !- Sun Exposure
  NoWind,                                 !- Wind Exposure
  ,                                       !- View Factor to Ground
  ,                                       !- Number of Vertices
  26.8875, 22.5515, 6.096,                !- X,Y,Z Vertex 1 {m}
  26.8875, 22.5515, 0,                    !- X,Y,Z Vertex 2 {m}
  26.8875, 13.5765, 0,                    !- X,Y,Z Vertex 3 {m}
  26.8875, 13.5765, 6.096;                !- X,Y,Z Vertex 4 {m}

OS:ThermalZone,
  {127b3519-852d-448a-a7b2-6eed4c851b79}, !- Handle
  Office Thermal Zone,                    !- Name
  1,                                      !- Multiplier
  ,                                       !- Ceiling Height {m}
  ,                                       !- Volume {m3}
  ,                                       !- Floor Area {m2}
  ,                                       !- Zone Inside Convection Algorithm
  ,                                       !- Zone Outside Convection Algorithm
  ,                                       !- Zone Conditioning Equipment List Name
  {3d92daa1-9cdc-4e79-90bb-9d70c1402cd6}, !- Zone Air Inlet Port List
  {12f7ff2c-09a5-4851-9168-30b147f9b659}, !- Zone Air Exhaust Port List
  {daefae1b-fd37-49d5-911d-7d46c66f1b5a}, !- Zone Air Node Name
  ,                                       !- Zone Return Air Node Name
  ,                                       !- Primary Daylighting Control Name
  ,                                       !- Fraction of Zone Controlled by Primary Daylighting Control
  ,                                       !- Secondary Daylighting Control Name
  ,                                       !- Fraction of Zone Controlled by Secondary Daylighting Control
  ,                                       !- Illuminance Map Name
  ,                                       !- Group Rendering Name
  {08eea2a8-9c71-46af-af40-874d849efaae}, !- Thermostat Name
  Yes;                                    !- Use Ideal Air Loads

OS:Node,
  {694fe16e-54b0-43eb-9670-5e89c725318b}, !- Handle
  {72317e59-9847-4fc2-b318-a128bc8bbb71}, !- Name
  {daefae1b-fd37-49d5-911d-7d46c66f1b5a}, !- Inlet Port
  ;                                       !- Outlet Port

OS:Connection,
  {daefae1b-fd37-49d5-911d-7d46c66f1b5a}, !- Handle
  {0ad4554e-3e4d-46d8-aa88-94cb54d9cd25}, !- Name
  {127b3519-852d-448a-a7b2-6eed4c851b79}, !- Source Object
  11,                                     !- Outlet Port
  {694fe16e-54b0-43eb-9670-5e89c725318b}, !- Target Object
  2;                                      !- Inlet Port

OS:PortList,
  {3d92daa1-9cdc-4e79-90bb-9d70c1402cd6}, !- Handle
  {2a6f4ca3-5ac0-4230-8f3a-16dbf024c969}, !- Name
  {127b3519-852d-448a-a7b2-6eed4c851b79}; !- HVAC Component

OS:PortList,
  {12f7ff2c-09a5-4851-9168-30b147f9b659}, !- Handle
  {d9320dd1-35c5-447c-a56b-2cebbbd529a8}, !- Name
  {127b3519-852d-448a-a7b2-6eed4c851b79}; !- HVAC Component

OS:Sizing:Zone,
  {75a1840b-df2d-4f53-8a00-37e27224a067}, !- Handle
  {127b3519-852d-448a-a7b2-6eed4c851b79}, !- Zone or ZoneList Name
  14,                                     !- Zone Cooling Design Supply Air Temperature {C}
  40,                                     !- Zone Heating Design Supply Air Temperature {C}
  0.0085,                                 !- Zone Cooling Design Supply Air Humidity Ratio {kg-H2O/kg-air}
  0.008,                                  !- Zone Heating Design Supply Air Humidity Ratio {kg-H2O/kg-air}
  ,                                       !- Zone Heating Sizing Factor
  ,                                       !- Zone Cooling Sizing Factor
  DesignDay,                              !- Cooling Design Air Flow Method
  ,                                       !- Cooling Design Air Flow Rate {m3/s}
  ,                                       !- Cooling Minimum Air Flow per Zone Floor Area {m3/s-m2}
  ,                                       !- Cooling Minimum Air Flow {m3/s}
  ,                                       !- Cooling Minimum Air Flow Fraction
  DesignDay,                              !- Heating Design Air Flow Method
  ,                                       !- Heating Design Air Flow Rate {m3/s}
  ,                                       !- Heating Maximum Air Flow per Zone Floor Area {m3/s-m2}
  ,                                       !- Heating Maximum Air Flow {m3/s}
  ,                                       !- Heating Maximum Air Flow Fraction
  ,                                       !- Design Zone Air Distribution Effectiveness in Cooling Mode
  ;                                       !- Design Zone Air Distribution Effectiveness in Heating Mode

OS:ZoneHVAC:EquipmentList,
  {a5e41d8e-6bc5-4928-955e-b4925f1f67c9}, !- Handle
  {096eb410-ae4b-4012-a2b6-fd850825cb9b}, !- Name
  {127b3519-852d-448a-a7b2-6eed4c851b79}; !- Thermal Zone

OS:Space,
  {ace324d0-5d87-4ef3-a707-25820f7f08cb}, !- Handle
  Office,                                 !- Name
  {8bf1f078-3f1b-469c-b27e-5567888ccafa}, !- Space Type Name
  ,                                       !- Default Construction Set Name
  ,                                       !- Default Schedule Set Name
  0,                                      !- Direction of Relative North {deg}
  0,                                      !- X Origin {m}
  0,                                      !- Y Origin {m}
  0,                                      !- Z Origin {m}
  {0d3cb3e2-56db-427f-b984-496183264aa8}, !- Building Story Name
  {127b3519-852d-448a-a7b2-6eed4c851b79}, !- Thermal Zone Name
  Yes,                                    !- Part of Total Floor Area
  ;                                       !- Design Specification Outdoor Air Object Name

OS:Surface,
  {dae8b4ab-dc0c-47e3-8efc-26f7e89520a8}, !- Handle
  Produce_Floor,                          !- Name
  Floor,                                  !- Surface Type
  ,                                       !- Construction Name
  {ebae0cea-bdc5-4c8e-8198-8502f9ef6867}, !- Space Name
  Ground,                                 !- Outside Boundary Condition
  ,                                       !- Outside Boundary Condition Object
  NoSun,                                  !- Sun Exposure
  NoWind,                                 !- Wind Exposure
  ,                                       !- View Factor to Ground
  ,                                       !- Number of Vertices
  -26.1698, 13.5765, 0,                   !- X,Y,Z Vertex 1 {m}
  -26.1698, -30.2429, 0,                  !- X,Y,Z Vertex 2 {m}
  -42.4038, -30.2429, 0,                  !- X,Y,Z Vertex 3 {m}
  -42.4038, 13.5765, 0;                   !- X,Y,Z Vertex 4 {m}

OS:Building,
  {93952797-770c-419d-94e2-08068d706205}, !- Handle
  c:/test//SuperMarket.osm,               !- Name
  ,                                       !- Building Sector Type
  0,                                      !- North Axis {deg}
  ,                                       !- Nominal Floor to Floor Height {m}
  ,                                       !- Space Type Name
  {2c3282b2-fede-4384-897c-5a6c774ae285}, !- Default Construction Set Name
  ;                                       !- Default Schedule Set Name

OS:Surface,
  {1e443045-db19-4391-8e65-c6663bf0834c}, !- Handle
  Sales_Ceiling,                          !- Name
  RoofCeiling,                            !- Surface Type
  ,                                       !- Construction Name
  {e4ae99a7-6928-4d15-8fa7-79b4ccff92a4}, !- Space Name
  Outdoors,                               !- Outside Boundary Condition
  ,                                       !- Outside Boundary Condition Object
  SunExposed,                             !- Sun Exposure
  WindExposed,                            !- Wind Exposure
  ,                                       !- View Factor to Ground
  ,                                       !- Number of Vertices
  26.8875, -30.2429, 6.096,               !- X,Y,Z Vertex 1 {m}
  26.8875, 13.5765, 6.096,                !- X,Y,Z Vertex 2 {m}
  -26.1698, 13.5765, 6.096,               !- X,Y,Z Vertex 3 {m}
  -26.1698, -30.2429, 6.096;              !- X,Y,Z Vertex 4 {m}

OS:Curve:Quadratic,
  {106134d3-0f1f-4ec4-a3b8-1375bffee14f}, !- Handle