
OS:Version,
  {14dd3a5f-9d7d-4fc9-a233-55014a37c1f3}, !- Handle
  1.6.0;                                  !- Version Identifier

OS:Site,
  {14795308-dce6-460d-986a-cbb3e342ef5d}, !- Handle
  Calgary Int'l_AB_CAN,                   !- Name
  51.12,                                  !- Latitude {deg}
  -114.02,                                !- Longitude {deg}
  -7,                                     !- Time Zone {hr}
  1084,                                   !- Elevation {m}
  City;                                   !- Terrain

OS:SimulationControl,
  {f028c67b-d51f-418a-be49-8a671eb87778}, !- Handle
  Yes,                                    !- Do Zone Sizing Calculation
  Yes,                                    !- Do System Sizing Calculation
  Yes,                                    !- Do Plant Sizing Calculation
  No,                                     !- Run Simulation for Sizing Periods
  Yes,                                    !- Run Simulation for Weather File Run Periods
  0.04,                                   !- Loads Convergence Tolerance Value
  0.2,                                    !- Temperature Convergence Tolerance Value {deltaC}
  FullInteriorAndExterior,                !- Solar Distribution
  40,                                     !- Maximum Number of Warmup Days
  6;                                      !- Minimum Number of Warmup Days

OS:Curve:Biquadratic,
  {2c400c85-efb3-40e9-88af-c9c54254298f}, !- Handle
  Measured_LowSpeedCoolEIRLSFT,           !- Name
  1.1389,                                 !- Coefficient1 Constant
  -0.04518,                               !- Coefficient2 x
  0.0014298,                              !- Coefficient3 x**2
  0.006044,                               !- Coefficient4 y
  0.0006745,                              !- Coefficient5 y**2
  -0.0012325,                             !- Coefficient6 x*y
  11.1,                                   !- Minimum Value of x {BasedOnField A2}
  29.4,                                   !- Maximum Value of x {BasedOnField A2}
  10,                                     !- Minimum Value of y {BasedOnField A3}
  50.3;                                   !- Maximum Value of y {BasedOnField A3}

OS:Curve:Biquadratic,
  {5be15f31-7c8d-4f51-b85a-ae9b52ce5833}, !- Handle
  Cool-EIR-fT,                            !- Name
  0.28687133,                             !- Coefficient1 Constant
  0.023902164,                            !- Coefficient2 x
  -0.000810648,                           !- Coefficient3 x**2
  0.013458546,                            !- Coefficient4 y
  0.0003389364,                           !- Coefficient5 y**2
  -0.0004870044,                          !- Coefficient6 x*y
  -100,                                   !- Minimum Value of x {BasedOnField A2}
  100,                                    !- Maximum Value of x {BasedOnField A2}
  -100,                                   !- Minimum Value of y {BasedOnField A3}
  100;                                    !- Maximum Value of y {BasedOnField A3}

OS:Surface,
  {f03e5f56-0682-4421-9c0c-0bda761b8baf}, !- Handle
  BulkStorage_Ceiling,                    !- Name
  RoofCeiling,                            !- Surface Type
  ,                                       !- Construction Name
  {c111e0f5-6d37-4ab8-910b-96f427d7710c}, !- Space Name
  Outdoors,                               !- Outside Boundary Condition
  ,                                       !- Outside Boundary Condition Object
  SunExposed,                             !- Sun Exposure
  WindExposed,                            !- Wind Exposure
  ,                                       !- View Factor to Ground
  ,                                       !- Number of Vertices
  45.7178, 30.4785, 8.534,                !- X,Y,Z Vertex 1 {m}
  45.7178, 100.579, 8.534,                !- X,Y,Z Vertex 2 {m}
  0, 100.579, 8.534,                      !- X,Y,Z Vertex 3 {m}
  0, 30.4785, 8.534;                      !- X,Y,Z Vertex 4 {m}

OS:ThermalZone,
  {ce882628-ebbd-4c2c-88f1-c13987db3289}, !- Handle
  BulkStorage Thermal Zone,               !- Name
  1,                                      !- Multiplier
  ,                                       !- Ceiling Height {m}
  ,                                       !- Volume {m3}
  ,                                       !- Floor Area {m2}
  ,                                       !- Zone Inside Convection Algorithm
  ,                                       !- Zone Outside Convection Algorithm
  ,                                       !- Zone Conditioning Equipment List Name
  {a7ac3efa-0b78-4d30-a767-79b737933900}, !- Zone Air Inlet Port List
  {601a5926-cab8-4166-a4ee-38ea572110ef}, !- Zone Air Exhaust Port List
  {acee45c2-8ef4-4cfe-a966-f097209e03db}, !- Zone Air Node Name
  ,                                       !- Zone Return Air Node Name
  ,                                       !- Primary Daylighting Control Name
  ,                                       !- Fraction of Zone Controlled by Primary Daylighting Control
  ,                                       !- Secondary Daylighting Control Name
  ,                                       !- Fraction of Zone Controlled by Secondary Daylighting Control
  ,                                       !- Illuminance Map Name
  ,                                       !- Group Rendering Name
  {b375d3f3-3d3c-40c8-84cf-0ac5756d4cee}, !- Thermostat Name
  Yes;                                    !- Use Ideal Air Loads

OS:Node,
  {2bdbe58a-e927-4b2e-ac92-3a4e15bae4df}, !- Handle
  {3929438f-742e-4710-85bb-ec1a8f9523ac}, !- Name
  {acee45c2-8ef4-4cfe-a966-f097209e03db}, !- Inlet Port
  ;                                       !- Outlet Port

OS:Connection,
  {acee45c2-8ef4-4cfe-a966-f097209e03db}, !- Handle
  {c23bc245-fb12-4bf2-b248-ee08f63d5535}, !- Name
  {ce882628-ebbd-4c2c-88f1-c13987db3289}, !- Source Object
  11,                                     !- Outlet Port
  {2bdbe58a-e927-4b2e-ac92-3a4e15bae4df}, !- Target Object
  2;                                      !- Inlet Port

OS:PortList,
  {a7ac3efa-0b78-4d30-a767-79b737933900}, !- Handle
  {a686eb16-3294-4a44-8128-d2bf45200246}, !- Name
  {ce882628-ebbd-4c2c-88f1-c13987db3289}; !- HVAC Component

OS:PortList,
  {601a5926-cab8-4166-a4ee-38ea572110ef}, !- Handle
  {f0d0383b-6fb5-4d74-883c-13959939a6d2}, !- Name
  {ce882628-ebbd-4c2c-88f1-c13987db3289}; !- HVAC Component

OS:Sizing:Zone,
  {231160ab-912b-43ae-a54c-30a684f31328}, !- Handle
  {ce882628-ebbd-4c2c-88f1-c13987db3289}, !- Zone or ZoneList Name
  14,                                     !- Zone Cooling Design Supply Air Temperature {C}
  40,                                     !- Zone Heating Design Supply Air Temperature {C}
  0.0085,                                 !- Zone Cooling Design Supply Air Humidity Ratio {kg-H2O/kg-air}
  0.008,                                  !- Zone Heating Design Supply Air Humidity Ratio {kg-H2O/kg-air}
  ,                                       !- Zone Heating Sizing Factor
  ,                                       !- Zone Cooling Sizing Factor
  DesignDay,                              !- Cooling Design Air Flow Method
  ,                                       !- Cooling Design Air Flow Rate {m3/s}
  ,                                       !- Cooling Minimum Air Flow per Zone Floor Area {m3/s-m2}
  ,                                       !- Cooling Minimum Air Flow {m3/s}
  ,                                       !- Cooling Minimum Air Flow Fraction
  DesignDay,                              !- Heating Design Air Flow Method
  ,                                       !- Heating Design Air Flow Rate {m3/s}
  ,                                       !- Heating Maximum Air Flow per Zone Floor Area {m3/s-m2}
  ,                                       !- Heating Maximum Air Flow {m3/s}
  ,                                       !- Heating Maximum Air Flow Fraction
  ,                                       !- Design Zone Air Distribution Effectiveness in Cooling Mode
  ;                                       !- Design Zone Air Distribution Effectiveness in Heating Mode

OS:ZoneHVAC:EquipmentList,
  {079dc52a-ce46-43ea-95b7-361c1f39fe0f}, !- Handle
  {1fa15ca2-cd62-4dc2-abf5-a4aeb88ed54e}, !- Name
  {ce882628-ebbd-4c2c-88f1-c13987db3289}; !- Thermal Zone

OS:Space,
  {c111e0f5-6d37-4ab8-910b-96f427d7710c}, !- Handle
  BulkStorage,                            !- Name
  {91fe9f13-3f72-464c-8af8-9661de49325a}, !- Space Type Name
  ,                                       !- Default Construction Set Name
  ,                                       !- Default Schedule Set Name
  0,                                      !- Direction of Relative North {deg}
  0,                                      !- X Origin {m}
  0,                                      !- Y Origin {m}
  0,                                      !- Z Origin {m}
  {df7f9ba1-6f97-4119-9be3-238cdca3e64d}, !- Building Story Name
  {ce882628-ebbd-4c2c-88f1-c13987db3289}, !- Thermal Zone Name
  Yes,                                    !- Part of Total Floor Area
  ;                                       !- Design Specification Outdoor Air Object Name

OS:Meter,
  {e9989ba7-6215-4832-b90f-264e8cd5a68e}, !- Handle
  WaterSystems:Gas,                       !- Name
  hourly,                                 !- Reporting Frequency
  False,                                  !- Meter File Only
  False;                                  !- Cumulative

OS:ThermalZone,
  {e7f5c2a4-9326-48cc-8774-8fe87ba6d08e}, !- Handle
  Office Thermal Zone,                    !- Name
  1,                                      !- Multiplier
  ,                                       !- Ceiling Height {m}
  ,                                       !- Volume {m3}
  ,                                       !- Floor Area {m2}
  ,                                       !- Zone Inside Convection Algorithm
  ,                                       !- Zone Outside Convection Algorithm
  ,                                       !- Zone Conditioning Equipment List Name
  {ef812233-0176-480b-b409-ef97e8479a4f}, !- Zone Air Inlet Port List
  {b23a4154-8263-4f4b-a7fc-fc3ba4040fd0}, !- Zone Air Exhaust Port List
  {2383904e-e617-4a03-a57a-d0098584f24a}, !- Zone Air Node Name
  ,                                       !- Zone Return Air Node Name
  ,                                       !- Primary Daylighting Control Name
  ,                                       !- Fraction of Zone Controlled by Primary Daylighting Control
  ,                                       !- Secondary Daylighting Control Name
  ,                                       !- Fraction of Zone Controlled by Secondary Daylighting Control
  ,                                       !- Illuminance Map Name
  ,                                       !- Group Rendering Name
  {b375d3f3-3d3c-40c8-84cf-0ac5756d4cee}, !- Thermostat Name
  Yes;                                    !- Use Ideal Air Loads

OS:Node,
  {252e4c25-19dc-4fa7-878d-7c3460137d3e}, !- Handle
  {7058ad44-cc15-457e-bcf7-27dd3ed0552f}, !- Name
  {2383904e-e617-4a03-a57a-d0098584f24a}, !- Inlet Port
  ;                                       !- Outlet Port

OS:Connection,
  {2383904e-e617-4a03-a57a-d0098584f24a}, !- Handle
  {08d11a9f-68fd-4c22-97f1-719c6bda9b45}, !- Name
  {e7f5c2a4-9326-48cc-8774-8fe87ba6d08e}, !- Source Object
  11,                                     !- Outlet Port
  {252e4c25-19dc-4fa7-878d-7c3460137d3e}, !- Target Object
  2;                                      !- Inlet Port

OS:PortList,
  {ef812233-0176-480b-b409-ef97e8479a4f}, !- Handle
  {6e2fe71c-b6cf-4393-a70d-49d01ebfde1e}, !- Name
  {e7f5c2a4-9326-48cc-8774-8fe87ba6d08e}; !- HVAC Component

OS:PortList,
  {b23a4154-8263-4f4b-a7fc-fc3ba4040fd0}, !- Handle
  {ee145646-96e5-4cf4-8408-6ffb1625da69}, !- Name
  {e7f5c2a4-9326-48cc-8774-8fe87ba6d08e}; !- HVAC Component

OS:Sizing:Zone,
  {a788f337-6d0a-41db-a25f-31ff96097621}, !- Handle
  {e7f5c2a4-9326-48cc-8774-8fe87ba6d08e}, !- Zone or ZoneList Name
  14,                                     !- Zone Cooling Design Supply Air Temperature {C}
  40,                                     !- Zone Heating Design Supply Air Temperature {C}
  0.0085,                                 !- Zone Cooling Design Supply Air Humidity Ratio {kg-H2O/kg-air}
  0.008,                                  !- Zone Heating Design Supply Air Humidity Ratio {kg-H2O/kg-air}
  ,                                       !- Zone Heating Sizing Factor
  ,                                       !- Zone Cooling Sizing Factor
  DesignDay,                              !- Cooling Design Air Flow Method
  ,                                       !- Cooling Design Air Flow Rate {m3/s}
  ,                                       !- Cooling Minimum Air Flow per Zone Floor Area {m3/s-m2}
  ,                                       !- Cooling Minimum Air Flow {m3/s}
  ,                                       !- Cooling Minimum Air Flow Fraction
  DesignDay,                              !- Heating Design Air Flow Method
  ,                                       !- Heating Design Air Flow Rate {m3/s}
  ,                                       !- Heating Maximum Air Flow per Zone Floor Area {m3/s-m2}
  ,                                       !- Heating Maximum Air Flow {m3/s}
  ,                                       !- Heating Maximum Air Flow Fraction
  ,                                       !- Design Zone Air Distribution Effectiveness in Cooling Mode
  ;                                       !- Design Zone Air Distribution Effectiveness in Heating Mode

OS:ZoneHVAC:EquipmentList,
  {051fcf7e-5cf1-4236-a16d-5d91637eb011}, !- Handle
  {0921becc-0d5b-4b39-98fc-bef8c0212c65}, !- Name
  {e7f5c2a4-9326-48cc-8774-8fe87ba6d08e}; !- Thermal Zone

OS:Space,
  {6e31f9a2-8df9-496f-837a-c898cb971e89}, !- Handle
  Office,                                 !- Name
  {5325a546-0153-4282-a96d-13f3935a6548}, !- Space Type Name
  ,                                       !- Default Construction Set Name
  ,                                       !- Default Schedule Set Name
  0,                                      !- Direction of Relative North {deg}
  0,                                      !- X Origin {m}
  0,                                      !- Y Origin {m}
  0,                                      !- Z Origin {m}
  {df7f9ba1-6f97-4119-9be3-238cdca3e64d}, !- Building Story Name
  {e7f5c2a4-9326-48cc-8774-8fe87ba6d08e}, !- Thermal Zone Name
  Yes,                                    !- Part of Total Floor Area
  ;                                       !- Design Specification Outdoor Air Object Name

OS:Surface,
  {89da522d-45ae-4e3e-bd9e-fe529be35bef}, !- Handle
  BulkStorage_Wall_West,                  !- Name
  Wall,                                   !- Surface Type
  ,                                       !- Construction Name
  {c111e0f5-6d37-4ab8-910b-96f427d7710c}, !- Space Name
  Outdoors,                               !- Outside Boundary Condition
  ,                                       !- Outside Boundary Condition Object
  SunExposed,                             !- Sun Exposure
  WindExposed,                            !- Wind Exposure
  ,                                       !- View Factor to Ground
  ,                                       !- Number of Vertices
  0, 100.579, 8.534,                      !- X,Y,Z Vertex 1 {m}
  0, 100.579, 0,                          !- X,Y,Z Vertex 2 {m}
  0, 30.4785, 0,                          !- X,Y,Z Vertex 3 {m}
  0, 30.4785, 8.534;                      !- X,Y,Z Vertex 4 {m}

OS:Curve:Quadratic,
  {e77a043c-6bc8-4a38-af40-abc8fbfe3592}, !- Handle
  No_PLR_Degredation,                     !- Name
  1,                                      !- Coefficient1 Constant
  0,                                      !- Coefficient2 x
  0,                                      !- Coefficient3 x**2
  0,                                      !- Minimum Value of x {BasedOnField A2}
  1;                                      !- Maximum Value of x {BasedOnField A2}

OS:Curve:Quadratic,
  {f3227f55-3d56-4ee5-8176-c2a69c0bf702}, !- Handle
  Cool-PLF-fPLR,                          !- Name
  0.90949556,                             !- Coefficient1 Constant
  0.09864773,                             !- Coefficient2 x
  -0.00819488,                            !- Coefficient3 x**2
  0,                                      !- Minimum Value of x {BasedOnField A2}
  1,                                      !- Maximum Value of x {BasedOnField A2}
  0.7,                                    !- Minimum Curve Output {BasedOnField A3}
  1;                                      !- Maximum Curve Output {BasedOnField A3}

OS:Curve:Quadratic,
  {01b53468-5d90-4100-913e-5a8900923a46}, !- Handle
  Measured_CoolCStandard10Ton_EIRFFF,     !- Name
  1.192,                                  !- Coefficient1 Constant
  -0.1917,                                !- Coefficient2 x
  0,                                      !- Coefficient3 x**2
  0.776,                                  !- Minimum Value of x {BasedOnField A2}
  1.197;                                  !- Maximum Value of x {BasedOnField A2}

OS:Surface,
  {e25d2a4e-a9e0-4cbb-b39e-c9b25b01014f}, !- Handle
  Office_Floor,                           !- Name
  Floor,                                  !- Surface Type
  ,                                       !- Construction Name
  {6e31f9a2-8df9-496f-837a-c898cb971e89}, !- Space Name
  Ground,                                 !- Outside Boundary Condition
  ,                                       !- Outside Boundary Condition Object
  NoSun,                                  !- Sun Exposure
  NoWind,                                 !- Wind Exposure
  ,                                       !- View Factor to Ground
  ,                                       !- Number of Vertices
  25.9067, 9.1435, 0,                     !- X,Y,Z Vertex 1 {m}
  25.9067, 0, 0,                          !- X,Y,Z Vertex 2 {m}
  0, 0, 0,                                !- X,Y,Z Vertex 3 {m}
  0, 9.1435, 0;                           !- X,Y,Z Vertex 4 {m}

OS:ThermalZone,
  {b790c4ec-8c2b-4d22-8211-8b337a3c5039}, !- Handle
  FineStorage Thermal Zone,               !- Name
  1,                                      !- Multiplier
  ,                                       !- Ceiling Height {m}
  ,                                       !- Volume {m3}
  ,                                       !- Floor Area {m2}
  ,                                       !- Zone Inside Convection Algorithm
  ,                                       !- Zone Outside Convection Algorithm
  ,                                       !- Zone Conditioning Equipment List Name
  {732f38f6-0143-43fd-b69f-c1acf17c422a}, !- Zone Air Inlet Port List
  {b204ae6b-cb21-44dd-9735-612510389cdc}, !- Zone Air Exhaust Port List
  {0ec38186-5e3f-4b33-a1e2-9a0d3c0a1492}, !- Zone Air Node Name
  ,                                       !- Zone Return Air Node Name
  ,                                       !- Primary Daylighting Control Name
  ,                                       !- Fraction of Zone Controlled by Primary Daylighting Control
  ,                                       !- Secondary Daylighting Control Name
  ,                                       !- Fraction of Zone Controlled by Secondary Daylighting Control
  ,                                       !- Illuminance Map Name
  ,                                       !- Group Rendering Name
  {b375d3f3-3d3c-40c8-84cf-0ac5756d4cee}, !- Thermostat Name
  Yes;                                    !- Use Ideal Air Loads

OS:Node,
  {011c0069-9bcc-4dd9-9887-f616112880b9}, !- Handle
  {ce0f5437-1023-4b30-beac-d2882dc219ed}, !- Name
  {0ec38186-5e3f-4b33-a1e2-9a0d3c0a1492}, !- Inlet Port
  ;                                       !- Outlet Port

OS:Connection,
  {0ec38186-5e3f-4b33-a1e2-9a0d3c0a1492}, !- Handle
  {c1f5b4dc-76ed-4e69-821a-0e5bc768c3d7}, !- Name
  {b790c4ec-8c2b-4d22-8211-8b337a3c5039}, !- Source Object
  11,                                     !- Outlet Port
  {011c0069-9bcc-4dd9-9887-f616112880b9}, !- Target Object
  2;                                      !- Inlet Port

OS:PortList,
  {732f38f6-0143-43fd-b69f-c1acf17c422a}, !- Handle
  {fb6f3ad6-74ba-4899-adfc-77e8923c086a}, !- Name
  {b790c4ec-8c2b-4d22-8211-8b337a3c5039}; !- HVAC Component

OS:PortList,
  {b204ae6b-cb21-44dd-9735-612510389cdc}, !- Handle
  {e0dd4404-247d-4584-af9c-50c100bb384e}, !- Name
  {b790c4ec-8c2b-4d22-8211-8b337a3c5039}; !- HVAC Component

OS:Sizing:Zone,
  {e07efa9e-a012-4287-bc30-9864e0ee21dc}, !- Handle
  {b790c4ec-8c2b-4d22-8211-8b337a3c5039}, !- Zone or ZoneList Name
  14,                                     !- Zone Cooling Design Supply Air Temperature {C}
  40,                                     !- Zone Heating Design Supply Air Temperature {C}
  0.0085,                                 !- Zone Cooling Design Supply Air Humidity Ratio {kg-H2O/kg-air}
  0.008,                                  !- Zone Heating Design Supply Air Humidity Ratio {kg-H2O/kg-air}
  ,                                       !- Zone Heating Sizing Factor
  ,                                       !- Zone Cooling Sizing Factor
  DesignDay,                              !- Cooling Design Air Flow Method
  ,                                       !- Cooling Design Air Flow Rate {m3/s}
  ,                                       !- Cooling Minimum Air Flow per Zone Floor Area {m3/s-m2}
  ,                                       !- Cooling Minimum Air Flow {m3/s}
  ,                                       !- Cooling Minimum Air Flow Fraction
  DesignDay,                              !- Heating Design Air Flow Method
  ,                                       !- Heating Design Air Flow Rate {m3/s}
  ,                                       !- Heating Maximum Air Flow per Zone Floor Area {m3/s-m2}
  ,                                       !- Heating Maximum Air Flow {m3/s}
  ,                                       !- Heating Maximum Air Flow Fraction
  ,                                       !- Design Zone Air Distribution Effectiveness in Cooling Mode
  ;                                       !- Design Zone Air Distribution Effectiveness in Heating Mode

OS:ZoneHVAC:EquipmentList,
  {68eb43e8-114d-4378-8572-b4dcf586455c}, !- Handle
  {896e8ee0-cac0-40f0-ae86-5615a56dfd47}, !- Name
  {b790c4ec-8c2b-4d22-8211-8b337a3c5039}; !- Thermal Zone

OS:Space,
  {9c5c9fd8-9b62-4979-a362-34f46c362900}, !- Handle
  FineStorage,                            !- Name
  {6da6189e-ea7a-470b-8ee8-5dc65f76f8ea}, !- Space Type Name
  ,                                       !- Default Construction Set Name
  ,                                       !- Default Schedule Set Name
  0,                                      !- Direction of Relative North {deg}
  0,                                      !- X Origin {m}
  0,                                      !- Y Origin {m}
  0,                                      !- Z Origin {m}
  {df7f9ba1-6f97-4119-9be3-238cdca3e64d}, !- Building Story Name
  {b790c4ec-8c2b-4d22-8211-8b337a3c5039}, !- Thermal Zone Name
  Yes,                                    !- Part of Total Floor Area
  ;                                       !- Design Specification Outdoor Air Object Name

OS:Surface,
  {5d2aed98-5513-47e3-a996-4511b508b84b}, !- Handle
  FineStorage_Wall_East,                  !- Name
  Wall,                                   !- Surface Type
  ,                                       !- Construction Name
  {9c5c9fd8-9b62-4979-a362-34f46c362900}, !- Space Name
  Outdoors,                               !- Outside Boundary Condition
  ,                                       !- Outside Boundary Condition Object
  SunExposed,                             !- Sun Exposure
  WindExposed,                            !- Wind Exposure
  ,                                       !- View Factor to Ground
  ,                                       !- Number of Vertices
  45.7178, 0, 8.534,                      !- X,Y,Z Vertex 1 {m}
  45.7178, 0, 0,                          !- X,Y,Z Vertex 2 {m}
  45.7178, 30.4785, 0,                    !- X,Y,Z Vertex 3 {m}
  45.7178, 30.4785, 8.534;                !- X,Y,Z Vertex 4 {m}

OS:Surface,
  {a9bd6043-5cce-4f50-875a-3cb377f95773}, !- Handle
  FineStorage_Wall_South_1,               !- Name
  Wall,                                   !- Surface Type
  ,                                       !- Construction Name
  {9c5c9fd8-9b62-4979-a362-34f46c362900}, !- Space Name
  Outdoors,                               !- Outside Boundary Condition
  ,                                       !- Outside Boundary Condition Object
  SunExposed,                             !- Sun Exposure
  WindExposed,                            !- Wind Exposure
  ,                                       !- View Factor to Ground
  ,                                       !- Number of Vertices
  25.9067, 0, 8.534,                      !- X,Y,Z Vertex 1 {m}
  25.9067, 0, 0,                          !- X,Y,Z Vertex 2 {m}
  45.7178, 0, 0,                          !- X,Y,Z Vertex 3 {m}
  45.7178, 0, 8.534;                      !- X,Y,Z Vertex 4 {m}

OS:Meter,
  {72dfbc2c-2c95-4bfa-9229-415452c68429}, !- Handle
  Pumps:Electricity,                      !- Name
  hourly,                                 !- Reporting Frequency
  False,                                  !- Meter File Only
  False;                                  !- Cumulative

OS:Surface,
  {9a728cde-b63d-40f5-a966-f9973f9c7e75}, !- Handle
  FineStorage_Ceiling,                    !- Name
  RoofCeiling,                            !- Surface Type
  ,                                       !- Construction Name
  {9c5c9fd8-9b62-4979-a362-34f46c362900}, !- Space Name
  Outdoors,                               !- Outside Boundary Condition
  ,                                       !- Outside Boundary Condition Object
  SunExposed,                             !- Sun Exposure
  WindExposed,                            !- Wind Exposure
  ,                                       !- View Factor to Ground
  ,                                       !- Number of Vertices
  45.7178, 0, 8.534,                      !- X,Y,Z Vertex 1 {m}
  45.7178, 30.4785, 8.534,                !- X,Y,Z Vertex 2 {m}
  0, 30.4785, 8.534,                      !- X,Y,Z Vertex 3 {m}
  0, 0, 8.534;                            !- X,Y,Z Vertex 4 {m}

OS:RunPeriod,
  {5e433b3a-0ec1-4180-b396-ce8448791b79}, !- Handle
  Run Period 1,                           !- Name
  1,                                      !- Begin Month
  1,                                      !- Begin Day of Month
  12,                                     !- End Month
  31,                                     !- End Day of Month
  No,                                     !- Use Weather File Holidays and Special Days
  No,                                     !- Use Weather File Daylight Saving Period
  No,                                     !- Apply Weekend Holiday Rule
  Yes,                                    !- Use Weather File Rain Indicators
  Yes,                                    !- Use Weather File Snow Indicators
  1;                                      !- Number of Times Runperiod to be Repeated

OS:YearDescription,
  {079bc1b1-4ab4-4ed2-b7ef-27abdd6061a6}, !- Handle
  ,                                       !- Calendar Year
  Sunday;                                 !- Day of Week for Start Day

OS:ShadowCalculation,
  {cc572dfb-7f6d-49b6-b278-f37221fe95b9}, !- Handle
  15000,                                  !- Calculation Frequency
  15000;                                  !- Maximum Figures in Shadow Overlap Calculations

OS:Surface,
  {f9a7390b-eb09-4173-86ac-c2357596f450}, !- Handle
  Fine Storage Office_Wall_South,         !- Name
  Wall,                                   !- Surface Type
  ,                                       !- Construction Name
  {9c5c9fd8-9b62-4979-a362-34f46c362900}, !- Space Name
  Outdoors,                               !- Outside Boundary Condition
  ,                                       !- Outside Boundary Condition Object
  SunExposed,                             !- Sun Exposure
  WindExposed,                            !- Wind Exposure
  ,                                       !- View Factor to Ground
  ,                                       !- Number of Vertices
  0, 0, 8.534,                            !- X,Y,Z Vertex 1 {m}
  0, 0, 4.267,                            !- X,Y,Z Vertex 2 {m}
  25.9067, 0, 4.267,                      !- X,Y,Z Vertex 3 {m}
  25.9067, 0, 8.534;                      !- X,Y,Z Vertex 4 {m}

OS:Surface,
  {27acf9d4-ed05-4628-8840-af15bbd4aca5}, !- Handle
  BulkStorage_Wall_East,                  !- Name
  Wall,                                   !- Surface Type
  ,                                       !- Construction Name
  {c111e0f5-6d37-4ab8-910b-96f427d7710c}, !- Space Name
  Outdoors,                               !- Outside Boundary Condition
  ,                                       !- Outside Boundary Condition Object
  SunExposed,                             !- Sun Exposure
  WindExposed,                            !- Wind Exposure
  ,                                       !- View Factor to Ground
  ,                                       !- Number of Vertices
  45.7178, 30.4785, 8.534,                !- X,Y,Z Vertex 1 {m}
  45.7178, 30.4785, 0,                    !- X,Y,Z Vertex 2 {m}
  45.7178, 100.579, 0,                    !- X,Y,Z Vertex 3 {m}
  45.7178, 100.579, 8.534;                !- X,Y,Z Vertex 4 {m}

OS:Meter,
  {993b3483-d613-427f-b9b1-bdf871447c85}, !- Handle
  Refrigeration:Electricity,              !- Name
  hourly,                                 !- Reporting Frequency
  False,                                  !- Meter File Only
  False;                                  !- Cumulative

OS:Curve:Biquadratic,