
OS:Version,
  {cb5b7b36-c179-44c9-82a8-a42de1582d00}, !- Handle
  1.8.0;                                  !- Version Identifier

OS:Site,
  {1d31e330-5821-400a-a63b-587a8f7deef3}, !- Handle
  USA IL-CHICAGO-OHARE,                   !- Name
  41.77,                                  !- Latitude {deg}
  -87.75,                                 !- Longitude {deg}
  -6,                                     !- Time Zone {hr}
  190,                                    !- Elevation {m}
  City;                                   !- Terrain

OS:SimulationControl,
  {ffb718e3-fb4f-48d8-b3cd-53192b9b305d}, !- Handle
  Yes,                                    !- Do Zone Sizing Calculation
  Yes,                                    !- Do System Sizing Calculation
  Yes,                                    !- Do Plant Sizing Calculation
  No,                                     !- Run Simulation for Sizing Periods
  Yes,                                    !- Run Simulation for Weather File Run Periods
  0.04,                                   !- Loads Convergence Tolerance Value
  0.2,                                    !- Temperature Convergence Tolerance Value {deltaC}
  FullInteriorAndExterior,                !- Solar Distribution
  25,                                     !- Maximum Number of Warmup Days
  6;                                      !- Minimum Number of Warmup Days

OS:Material,
  {3ed6ad82-4d80-4fdc-bd3a-5ddbf3389bc1}, !- Handle
  8IN CONCRETE HW,                        !- Name
  Rough,                                  !- Roughness
  0.2032,                                 !- Thickness {m}
  1.311,                                  !- Conductivity {W/m-K}
  2240,                                   !- Density {kg/m3}
  836.8,                                  !- Specific Heat {J/kg-K}
  0.9,                                    !- Thermal Absorptance
  0.7,                                    !- Solar Absorptance
  0.7;                                    !- Visible Absorptance

OS:Schedule:Compact,
  {413e66d0-d9d4-423a-b6aa-d0edc4656e44}, !- Handle
  Kitchen_Exhaust_SCH,                    !- Name
  {854bb74e-18e8-409a-8ba1-f60b9f1f11c8}, !- Schedule Type Limits Name
  Through: 12/31,                         !- Field 1
  For: AllDays,                           !- Field 2
  Until: 01:00,                           !- Field 3
  1.0,                                    !- Field 4
  Until: 05:00,                           !- Field 5
  0.0,                                    !- Field 6
  Until: 24:00,                           !- Field 7
  1.0;                                    !- Field 8

OS:ScheduleTypeLimits,
  {854bb74e-18e8-409a-8ba1-f60b9f1f11c8}, !- Handle
  On/Off,                                 !- Name
  0,                                      !- Lower Limit Value {BasedOnField A4}
  1,                                      !- Upper Limit Value {BasedOnField A4}
  DISCRETE,                               !- Numeric Type
  Availability;                           !- Unit Type

OS:Space,
  {ddc8ac8e-52a9-4358-8b6a-63f1e0b5fd1a}, !- Handle
  Kitchen,                                !- Name
  {7a008da6-4e74-485c-9992-66b5ed9c465f}, !- Space Type Name
  ,                                       !- Default Construction Set Name
  ,                                       !- Default Schedule Set Name
  0,                                      !- Direction of Relative North {deg}
  0,                                      !- X Origin {m}
  0,                                      !- Y Origin {m}
  0,                                      !- Z Origin {m}
  {7fca524b-2bad-4850-a715-907d4a3b98ec}, !- Building Story Name
  {458064e5-fef0-4a37-b863-b2e6dcb124fb}, !- Thermal Zone Name
  Yes,                                    !- Part of Total Floor Area
  {4d8d0eea-1a8e-407d-b076-6daaf9bf4512}; !- Design Specification Outdoor Air Object Name

OS:ThermostatSetpoint:DualSetpoint,
  {25716f95-cc48-4c4b-bd29-68b24a04fec7}, !- Handle
  {0175e2c3-2544-4b5c-ae2f-ea45a48ca05d}, !- Name
  {436ef855-148d-4239-bcc1-0b8e153a24f1}, !- Heating Setpoint Temperature Schedule Name
  {02bb01a0-9f50-462a-840f-1ade73e38031}; !- Cooling Setpoint Temperature Schedule Name

OS:Schedule:Compact,
  {436ef855-148d-4239-bcc1-0b8e153a24f1}, !- Handle
  HTGSETP_KITCHEN_SCH,                    !- Name
  {903f464b-8131-4fdd-ae22-8b20ea1ad3af}, !- Schedule Type Limits Name
  Through: 12/31,                         !- Field 1
  For: SummerDesignDay,                   !- Field 2
  Until: 24:00,                           !- Field 3
  15.6,                                   !- Field 4
  For: WinterDesignDay,                   !- Field 5
  Until: 24:00,                           !- Field 6
  19,                                     !- Field 7
  For: AllOtherDays,                      !- Field 8
  Until: 01:00,                           !- Field 9
  19,                                     !- Field 10
  Until: 05:00,                           !- Field 11
  15.6,                                   !- Field 12
  Until: 24:00,                           !- Field 13
  19;                                     !- Field 14

OS:ScheduleTypeLimits,
  {903f464b-8131-4fdd-ae22-8b20ea1ad3af}, !- Handle
  Temperature,                            !- Name
  -60,                                    !- Lower Limit Value {BasedOnField A4}
  200,                                    !- Upper Limit Value {BasedOnField A4}
  CONTINUOUS,                             !- Numeric Type
  Temperature;                            !- Unit Type

OS:Schedule:Compact,
  {02bb01a0-9f50-462a-840f-1ade73e38031}, !- Handle
  CLGSETP_KITCHEN_SCH,                    !- Name
  {903f464b-8131-4fdd-ae22-8b20ea1ad3af}, !- Schedule Type Limits Name
  Through: 12/31,                         !- Field 1
  For: WinterDesignDay,                   !- Field 2
  Until: 24:00,                           !- Field 3
  30,                                     !- Field 4
  For: AllOtherDays,                      !- Field 5
  Until: 01:00,                           !- Field 6
  26,                                     !- Field 7
  Until: 05:00,                           !- Field 8
  30,                                     !- Field 9
  Until: 24:00,                           !- Field 10
  26;                                     !- Field 11

OS:DesignSpecification:OutdoorAir,
  {4d8d0eea-1a8e-407d-b076-6daaf9bf4512}, !- Handle
  SZ DSOA Kitchen,                        !- Name
  ,                                       !- Outdoor Air Method
  0.008,                                  !- Outdoor Air Flow per Person {m3/s-person}
  ,                                       !- Outdoor Air Flow per Floor Area {m3/s-m2}
  ,                                       !- Outdoor Air Flow Rate {m3/s}
  ,                                       !- Outdoor Air Flow Air Changes per Hour {1/hr}
  ;                                       !- Outdoor Air Flow Rate Fraction Schedule Name

OS:Meter,
  {bd623433-844d-48b1-b77c-8df48565d0b7}, !- Handle
  Heating:Gas,                            !- Name
  hourly,                                 !- Reporting Frequency
  False,                                  !- Meter File Only
  False;                                  !- Cumulative

OS:Meter,
  {1d3c284c-dd76-43a4-a488-ec8eae669f28}, !- Handle
  Fans:Electricity,                       !- Name
  hourly,                                 !- Reporting Frequency
  False,                                  !- Meter File Only
  False;                                  !- Cumulative

OS:ScheduleTypeLimits,
  {60ef1336-9a4e-44e7-aa91-20482b3ea3ea}, !- Handle
  {640d3349-8bd0-4d41-952a-0081f9d47c77}; !- Name

OS:Material:NoMass,
  {d369d9b9-06d9-441e-bc44-a1f5e4f44212}, !- Handle
  CP02 CARPET PAD,                        !- Name
  VeryRough,                              !- Roughness
  0.2165,                                 !- Thermal Resistance {m2-K/W}
  0.9,                                    !- Thermal Absorptance
  0.7,                                    !- Solar Absorptance
  0.8;                                    !- Visible Absorptance

OS:Curve:Cubic,
  {501afeab-7c26-4610-9436-f0f214393758}, !- Handle
  ConstantCubic,                          !- Name
  1,                                      !- Coefficient1 Constant
  0,                                      !- Coefficient2 x
  0,                                      !- Coefficient3 x**2
  0,                                      !- Coefficient4 x**3
  -100,                                   !- Minimum Value of x {BasedOnField A2}
  100;                                    !- Maximum Value of x {BasedOnField A2}

OS:Schedule:Compact,
  {b77fd2ee-0b8d-4496-8a8a-03d6a558bc00}, !- Handle
  SWHSys1 Water Heater Setpoint Temperature Schedule Name, !- Name
  {903f464b-8131-4fdd-ae22-8b20ea1ad3af}, !- Schedule Type Limits Name
  Through: 12/31,                         !- Field 1
  For: AllDays,                           !- Field 2
  Until: 24:00,                           !- Field 3
  60.0;                                   !- Field 4

OS:ShadowCalculation,
  {53e9a5d8-e22b-4c2d-b89d-e10311c562ee}, !- Handle
  15000,                                  !- Calculation Frequency
  15000;                                  !- Maximum Figures in Shadow Overlap Calculations

OS:Schedule:Compact,
  {9a694f2c-d324-42a6-88dd-c963581ca66d}, !- Handle
  Kitchen Water Equipment Hot Supply Temp Sched, !- Name
  {903f464b-8131-4fdd-ae22-8b20ea1ad3af}, !- Schedule Type Limits Name
  Through: 12/31,                         !- Field 1
  For: AllDays,                           !- Field 2
  Until: 24:00,                           !- Field 3
  49;                                     !- Field 4

OS:Schedule:Compact,
  {4459f69a-ad55-47ac-8fb2-b070aa42208a}, !- Handle
  Kitchen_Case:1_WALKINFREEZER_CaseDefrost2aDaySched, !- Name
  {854bb74e-18e8-409a-8ba1-f60b9f1f11c8}, !- Schedule Type Limits Name
  Through: 12/31,                         !- Field 1
  For:AllDays,                            !- Field 2
  Interpolate:Yes,                        !- Field 3
  Until: 11:00,                           !- Field 4
  0,                                      !- Field 5
  Until: 11:20,                           !- Field 6
  1,                                      !- Field 7
  Until: 23:00,                           !- Field 8
  0,                                      !- Field 9
  Until: 23:20,                           !- Field 10
  1,                                      !- Field 11
  Until: 24:00,                           !- Field 12
  0;                                      !- Field 13

OS:Meter,
  {618da12a-8577-4e87-a402-7254483dc121}, !- Handle
  Humidifier:Electricity,                 !- Name
  hourly,                                 !- Reporting Frequency
  False,                                  !- Meter File Only
  False;                                  !- Cumulative

OS:GasEquipment:Definition,
  {53afabf2-b84e-4ed2-a6f0-c81596cb3936}, !- Handle
  Kitchen_MiscGas_Equip Definition,       !- Name
  EquipmentLevel,                         !- Design Level Calculation Method
  166994,                                 !- Design Level {W}
  ,                                       !- Watts per Space Floor Area {W/m2}
  ,                                       !- Watts per Person {W/Person}
  0.1,                                    !- Fraction Latent
  0.2,                                    !- Fraction Radiant
  0.7;                                    !- Fraction Lost

OS:GasEquipment,
  {b0f5069a-9189-46c0-932c-e1a1eecc0167}, !- Handle
  Kitchen_MiscGas_Equip,                  !- Name
  {53afabf2-b84e-4ed2-a6f0-c81596cb3936}, !- Gas Equipment Definition Name
  {ddc8ac8e-52a9-4358-8b6a-63f1e0b5fd1a}, !- Space or SpaceType Name
  {3982c633-7f9b-4c5f-9f6e-542d250f3c3b}, !- Schedule Name
  ,                                       !- Multiplier
  MiscGas;                                !- End-Use Subcategory

OS:Schedule:Compact,
  {3982c633-7f9b-4c5f-9f6e-542d250f3c3b}, !- Handle
  GAS_EQUIP_SCH,                          !- Name
  {e25b39a1-71a9-45f0-ad85-0bbe0bf00afc}, !- Schedule Type Limits Name
  Through: 12/31,                         !- Field 1
  For: Weekdays Saturday,                 !- Field 2
  Until: 05:00,                           !- Field 3
  0.02,                                   !- Field 4
  Until: 06:00,                           !- Field 5
  0.05,                                   !- Field 6
  Until: 07:00,                           !- Field 7
  0.1,                                    !- Field 8
  Until: 08:00,                           !- Field 9
  0.15,                                   !- Field 10
  Until: 09:00,                           !- Field 11
  0.2,                                    !- Field 12
  Until: 10:00,                           !- Field 13
  0.15,                                   !- Field 14
  Until: 13:00,                           !- Field 15
  0.25,                                   !- Field 16
  Until: 14:00,                           !- Field 17
  0.2,                                    !- Field 18
  Until: 15:00,                           !- Field 19
  0.15,                                   !- Field 20
  Until: 16:00,                           !- Field 21
  0.2,                                    !- Field 22
  Until: 19:00,                           !- Field 23
  0.3,                                    !- Field 24
  Until: 21:00,                           !- Field 25
  0.20,                                   !- Field 26
  Until: 22:00,                           !- Field 27
  0.15,                                   !- Field 28
  Until: 23:00,                           !- Field 29
  0.10,                                   !- Field 30
  Until: 24:00,                           !- Field 31
  0.05,                                   !- Field 32
  For: SummerDesignDay,                   !- Field 33
  Until: 24:00,                           !- Field 34
  0.25,                                   !- Field 35
  For: WinterDesignDay,                   !- Field 36
  Until: 24:00,                           !- Field 37
  0.0,                                    !- Field 38
  For: Sunday Holidays AllOtherDays,      !- Field 39
  Until: 05:00,                           !- Field 40
  0.02,                                   !- Field 41
  Until: 06:00,                           !- Field 42
  0.05,                                   !- Field 43
  Until: 07:00,                           !- Field 44
  0.1,                                    !- Field 45
  Until: 08:00,                           !- Field 46
  0.15,                                   !- Field 47
  Until: 09:00,                           !- Field 48
  0.2,                                    !- Field 49
  Until: 10:00,                           !- Field 50
  0.15,                                   !- Field 51
  Until: 13:00,                           !- Field 52
  0.25,                                   !- Field 53
  Until: 14:00,                           !- Field 54
  0.2,                                    !- Field 55
  Until: 15:00,                           !- Field 56
  0.15,                                   !- Field 57
  Until: 16:00,                           !- Field 58
  0.2,                                    !- Field 59
  Until: 19:00,                           !- Field 60
  0.3,                                    !- Field 61
  Until: 21:00,                           !- Field 62
  0.20,                                   !- Field 63
  Until: 22:00,                           !- Field 64
  0.15,                                   !- Field 65
  Until: 23:00,                           !- Field 66
  0.10,                                   !- Field 67
  Until: 24:00,                           !- Field 68
  0.05;                                   !- Field 69

OS:ScheduleTypeLimits,
  {e25b39a1-71a9-45f0-ad85-0bbe0bf00afc}, !- Handle
  Fraction,                               !- Name
  0,                                      !- Lower Limit Value {BasedOnField A4}
  1,                                      !- Upper Limit Value {BasedOnField A4}
  CONTINUOUS;                             !- Numeric Type

OS:Curve:Quadratic,
  {3ed1da49-e2f9-4add-9615-72e12fb1f09d}, !- Handle
  RACK2_RackCOPfTCurve,                   !- Name
  1,                                      !- Coefficient1 Constant
  0,                                      !- Coefficient2 x
  0,                                      !- Coefficient3 x**2
  0,                                      !- Minimum Value of x {BasedOnField A2}
  50;                                     !- Maximum Value of x {BasedOnField A2}

OS:Construction,
  {cfcebf1e-9543-4c27-b36f-039cdaa1efa0}, !- Handle
  InteriorFurnishings,                    !- Name
  ,                                       !- Surface Rendering Name
  {b61eceb6-3a8c-489a-b2f8-7e36acf25571}; !- Layer 1

OS:Material,
  {b61eceb6-3a8c-489a-b2f8-7e36acf25571}, !- Handle
  Std Wood 6inch,                         !- Name
  MediumSmooth,                           !- Roughness
  0.15,                                   !- Thickness {m}
  0.12,                                   !- Conductivity {W/m-K}
  540,                                    !- Density {kg/m3}
  1210,                                   !- Specific Heat {J/kg-K}
  0.9,                                    !- Thermal Absorptance
  0.7,                                    !- Solar Absorptance
  0.7;                                    !- Visible Absorptance

OS:Curve:Biquadratic,
  {785a779b-f463-4fe4-88a8-4588758223cd}, !- Handle
  Measured_CoolCStandard10Ton_CapFT,      !- Name
  0.52357,                                !- Coefficient1 Constant
  0.03478,                                !- Coefficient2 x
  0,                                      !- Coefficient3 x**2
  -0.001915,                              !- Coefficient4 y
  -0.00010838,                            !- Coefficient5 y**2
  0,                                      !- Coefficient6 x*y
  11.1,                                   !- Minimum Value of x {BasedOnField A2}
  29.4,                                   !- Maximum Value of x {BasedOnField A2}
  10,                                     !- Minimum Value of y {BasedOnField A3}
  50.3;                                   !- Maximum Value of y {BasedOnField A3}

OS:Material:NoMass,
  {659646aa-1c36-4509-97d3-880a7a97526e}, !- Handle
  MAT-AIR-WALL,                           !- Name
  Rough,                                  !- Roughness
  0.2079491,                              !- Thermal Resistance {m2-K/W}
  0.9,                                    !- Thermal Absorptance
  0.7;                                    !- Solar Absorptance

OS:Space,
  {ee4ce516-aceb-4b19-8b81-6fbe0a12f8b6}, !- Handle
  Dining,                                 !- Name
  {a0f26674-8fcd-4fec-9a6e-8299ce76c570}, !- Space Type Name
  ,                                       !- Default Construction Set Name
  ,                                       !- Default Schedule Set Name
  0,                                      !- Direction of Relative North {deg}
  0,                                      !- X Origin {m}
  0,                                      !- Y Origin {m}
  0,                                      !- Z Origin {m}
  {7fca524b-2bad-4850-a715-907d4a3b98ec}, !- Building Story Name
  {ad25970a-efb8-4d26-b74b-06084c392d8d}, !- Thermal Zone Name
  Yes,                                    !- Part of Total Floor Area
  {836d9bee-741a-4ec0-9d57-2ffdc72101b5}; !- Design Specification Outdoor Air Object Name

OS:ThermostatSetpoint:DualSetpoint,
  {714d88e4-c30c-4449-ac5d-58cec7016308}, !- Handle
  {222da783-97a7-4bf1-bd3b-1f33c161e872}, !- Name
  {b33714b6-cfee-4786-9112-57368a1aed62}, !- Heating Setpoint Temperature Schedule Name
  {f0d29c98-367f-4ee1-826d-ac100deef02b}; !- Cooling Setpoint Temperature Schedule Name

OS:Schedule:Compact,
  {b33714b6-cfee-4786-9112-57368a1aed62}, !- Handle
  HTGSETP_SCH,                            !- Name
  {903f464b-8131-4fdd-ae22-8b20ea1ad3af}, !- Schedule Type Limits Name
  Through: 12/31,                         !- Field 1
  For: SummerDesignDay,                   !- Field 2
  Until: 24:00,                           !- Field 3
  15.6,                                   !- Field 4
  For: WinterDesignDay,                   !- Field 5
  Until: 24:00,                           !- Field 6
  21,                                     !- Field 7
  For: AllOtherDays,                      !- Field 8
  Until: 01:00,                           !- Field 9
  21,                                     !- Field 10
  Until: 05:00,                           !- Field 11
  15.6,                                   !- Field 12
  Until: 24:00,                           !- Field 13
  21;                                     !- Field 14

OS:Schedule:Compact,
  {f0d29c98-367f-4ee1-826d-ac100deef02b}, !- Handle
  CLGSETP_SCH,                            !- Name
  {903f464b-8131-4fdd-ae22-8b20ea1ad3af}, !- Schedule Type Limits Name
  Through: 12/31,                         !- Field 1
  For: WinterDesignDay,                   !- Field 2
  Until: 24:00,                           !- Field 3
  30,                                     !- Field 4
  For: AllOtherDays,                      !- Field 5
  Until: 01:00,                           !- Field 6
  24,                                     !- Field 7
  Until: 05:00,                           !- Field 8
  30,                                     !- Field 9
  Until: 24:00,                           !- Field 10
  24;                                     !- Field 11

OS:Schedule:Compact,
  {f9c4ea21-3c7b-4055-90ae-9eab8a4ebf5d}, !- Handle
  Kitchen_Case:1_WALKINFREEZER_CaseCreditReduxSched, !- Name
  {e25b39a1-71a9-45f0-ad85-0bbe0bf00afc}, !- Schedule Type Limits Name
  Through: 12/31,                         !- Field 1
  For:AllDays,                            !- Field 2
  Interpolate:No,                         !- Field 3
  Until: 7:00,                            !- Field 4
  0.2,                                    !- Field 5
  Until: 21:00,                           !- Field 6
  0.4,                                    !- Field 7
  Until: 24:00,                           !- Field 8
  0.2;                                    !- Field 9

OS:Surface,
  {bdf3d6a8-9caf-4ecd-a574-6ed6aec09445}, !- Handle
  north-roof,                             !- Name
  RoofCeiling,                            !- Surface Type
  {b9973172-d735-4dba-a020-61c9b0704d77}, !- Construction Name
  {fc008426-179d-4d81-a1f9-fcd9c9daaccd}, !- Space Name
  Outdoors,                               !- Outside Boundary Condition
  ,                                       !- Outside Boundary Condition Object
  SunExposed,                             !- Sun Exposure
  WindExposed,                            !- Wind Exposure
  ,                                       !- View Factor to Ground
  ,                                       !- Number of Vertices
  11.3044, 18.8397, 3.7692,               !- X,Y,Z Vertex 1 {m}
  22.6087, 22.6087, 0,                    !- X,Y,Z Vertex 2 {m}
  0, 22.6087, 0;                          !- X,Y,Z Vertex 3 {m}

OS:Construction,
  {b9973172-d735-4dba-a020-61c9b0704d77}, !- Handle
  Attic Non-res Roof,                     !- Name
  ,                                       !- Surface Rendering Name
  {c14979c3-b868-4820-baf6-d0dee3f38c4b}, !- Layer 1
  {15557e15-54b6-4bd3-81fd-b094a63fef95}; !- Layer 2

OS:Material,
  {c14979c3-b868-4820-baf6-d0dee3f38c4b}, !- Handle
  Roof Membrane,                          !- Name
  VeryRough,                              !- Roughness
  0.0095,                                 !- Thickness {m}
  0.16,                                   !- Conductivity {W/m-K}
  1121.29,                                !- Density {kg/m3}
  1460,                                   !- Specific Heat {J/kg-K}
  0.9,                                    !- Thermal Absorptance
  0.7,                                    !- Solar Absorptance
  0.7;                                    !- Visible Absorptance

OS:Material,
  {15557e15-54b6-4bd3-81fd-b094a63fef95}, !- Handle
  Metal Decking,                          !- Name
  MediumSmooth,                           !- Roughness
  0.0015,                                 !- Thickness {m}
  45.006,                                 !- Conductivity {W/m-K}
  7680,                                   !- Density {kg/m3}
  418.4,                                  !- Specific Heat {J/kg-K}
  0.9,                                    !- Thermal Absorptance
  0.7,                                    !- Solar Absorptance
  0.3;                                    !- Visible Absorptance

OS:Space,
  {fc008426-179d-4d81-a1f9-fcd9c9daaccd}, !- Handle
  attic,                                  !- Name
  {94ce48fe-c4db-40de-9daa-09e97c297b72}, !- Space Type Name
  ,                                       !- Default Construction Set Name
  ,                                       !- Default Schedule Set Name
  0,                                      !- Direction of Relative North {deg}
  0,                                      !- X Origin {m}
  0,                                      !- Y Origin {m}
  3.0488,                                 !- Z Origin {m}
  {179f252d-be0e-413d-b586-3394ca5a8739}, !- Building Story Name
  ,                                       !- Thermal Zone Name
  No;                                     !- Part of Total Floor Area

OS:Schedule:Compact,
  {76b13751-b811-4241-acd4-c336bd3fbc21}, !- Handle
  ACTIVITY_SCH,                           !- Name
  {f41539b6-4d46-4c74-b771-4e0d3b2e272b}, !- Schedule Type Limits Name
  Through: 12/31,                         !- Field 1
  For: AllDays,                           !- Field 2
  Until: 24:00,                           !- Field 3
  120.;                                   !- Field 4

OS:ScheduleTypeLimits,
  {07e57a8c-e23e-402e-9e24-0f7440aedcd5}, !- Handle
  {3f886e82-0d7d-44d7-a4be-e1287a76e48c}; !- Name

OS:ScheduleTypeLimits,
  {389fe8ae-e273-4b3f-b5d5-cd3957fb0e7e}, !- Handle
  Control Type,                           !- Name
  0,                                      !- Lower Limit Value {BasedOnField A4}
  4,                                      !- Upper Limit Value {BasedOnField A4}
  DISCRETE,                               !- Numeric Type
  ControlMode;                            !- Unit Type

OS:SpaceInfiltration:DesignFlowRate,
  {ffd61620-2f0a-48ba-8b24-488c5a68ab96}, !- Handle
  attic_Infiltration,                     !- Name
  {fc008426-179d-4d81-a1f9-fcd9c9daaccd}, !- Space or SpaceType Name
  {c7b0bc8a-09df-4b79-9590-323e24a8822f}, !- Schedule Name
  AirChanges/Hour,                        !- Design Flow Rate Calculation Method
  ,                                       !- Design Flow Rate {m3/s}
  ,                                       !- Flow per Space Floor Area {m3/s-m2}
  ,                                       !- Flow per Exterior Surface Area {m3/s-m2}
  1,                                      !- Air Changes per Hour {1/hr}
  1,                                      !- Constant Term Coefficient
  0,                                      !- Temperature Term Coefficient
  0,                                      !- Velocity Term Coefficient
  0;                                      !- Velocity Squared Term Coefficient

OS:Schedule:Compact,
  {c7b0bc8a-09df-4b79-9590-323e24a8822f}, !- Handle
  ALWAYS_ON,                              !- Name
  {854bb74e-18e8-409a-8ba1-f60b9f1f11c8}, !- Schedule Type Limits Name
  Through: 12/31,                         !- Field 1
  For: AllDays,                           !- Field 2
  Until: 24:00,                           !- Field 3
  1;                                      !- Field 4

OS:Schedule:Compact,
  {75c82214-83ae-4357-9fed-42ea2d289f29}, !- Handle
  BLDG_LIGHT_SCH,                         !- Name
  {e25b39a1-71a9-45f0-ad85-0bbe0bf00afc}, !- Schedule Type Limits Name
  Through: 12/31,                         !- Field 1
  For: SummerDesignDay,                   !- Field 2
  Until: 24:00,                           !- Field 3
  1.0,                                    !- Field 4
  For: WinterDesignDay,                   !- Field 5
  Until: 24:00,                           !- Field 6
  0.0,                                    !- Field 7
  For: Weekday Saturday Sunday Holidays AllOtherDays, !- Field 8
  Until: 01:00,                           !- Field 9
  0.45,                                   !- Field 10
  Until: 05:00,                           !- Field 11
  0.15,                                   !- Field 12
  Until: 06:00,                           !- Field 13
  0.45,                                   !- Field 14
  Until: 24:00,                           !- Field 15
  0.90;                                   !- Field 16

OS:ElectricEquipment:Definition,
  {dbde9686-204e-4ca9-8fa9-1787348e28d6}, !- Handle
  Dining_MiscElec_Equip Definition,       !- Name
  EquipmentLevel,                         !- Design Level Calculation Method
  22402,                                  !- Design Level {W}
  ,                                       !- Watts per Space Floor Area {W/m2}
  ,                                       !- Watts per Person {W/person}
  0.25,                                   !- Fraction Latent
  0.3,                                    !- Fraction Radiant
  0;                                      !- Fraction Lost

OS:ElectricEquipment,
  {37111832-8e93-4a5a-beca-bc1a678ce805}, !- Handle
  Dining_MiscElec_Equip,                  !- Name
  {dbde9686-204e-4ca9-8fa9-1787348e28d6}, !- Electric Equipment Definition Name
  {ee4ce516-aceb-4b19-8b81-6fbe0a12f8b6}, !- Space or SpaceType Name
  {982a9e26-a5a1-46e6-8dc0-bc2575b20c39}, !- Schedule Name
  ,                                       !- Multiplier
  MiscElec;                               !- End-Use Subcategory

OS:Schedule:Compact,