
OS:Version,
  {fdd90a2d-bf96-469c-9b84-921c6aee2beb}, !- Handle
  1.8.5;                                  !- Version Identifier

OS:Site,
  {eeeecf46-5c91-4e50-8e73-7d6246dc79cf}, !- Handle
  USA IL-CHICAGO-OHARE,                   !- Name
  41.77,                                  !- Latitude {deg}
  -87.75,                                 !- Longitude {deg}
  -6,                                     !- Time Zone {hr}
  190,                                    !- Elevation {m}
  City;                                   !- Terrain

OS:SimulationControl,
  {c57fc286-0b8f-4625-8d42-72666817dcad}, !- Handle
  Yes,                                    !- Do Zone Sizing Calculation
  Yes,                                    !- Do System Sizing Calculation
  Yes,                                    !- Do Plant Sizing Calculation
  No,                                     !- Run Simulation for Sizing Periods
  Yes,                                    !- Run Simulation for Weather File Run Periods
  0.04,                                   !- Loads Convergence Tolerance Value
  0.2,                                    !- Temperature Convergence Tolerance Value {deltaC}
  FullInteriorAndExterior,                !- Solar Distribution
  25,                                     !- Maximum Number of Warmup Days
  6;                                      !- Minimum Number of Warmup Days

OS:Material,
  {c0bdc27e-6de3-4b35-bec8-137c333b7157}, !- Handle
  8IN CONCRETE HW,                        !- Name
  Rough,                                  !- Roughness
  0.2032,                                 !- Thickness {m}
  1.311,                                  !- Conductivity {W/m-K}
  2240,                                   !- Density {kg/m3}
  836.8,                                  !- Specific Heat {J/kg-K}
  0.9,                                    !- Thermal Absorptance
  0.7,                                    !- Solar Absorptance
  0.7;                                    !- Visible Absorptance

OS:Material,
  {73b52ff9-6f36-4b3e-b7f5-67cc66f4dc8c}, !- Handle
  HW CONCRETE,                            !- Name
  Rough,                                  !- Roughness
  0.1016,                                 !- Thickness {m}
  1.311,                                  !- Conductivity {W/m-K}
  2240,                                   !- Density {kg/m3}
  836.8,                                  !- Specific Heat {J/kg-K}
  0.9,                                    !- Thermal Absorptance
  0.7,                                    !- Solar Absorptance
  0.7;                                    !- Visible Absorptance

OS:Sizing:Parameters,
  {73e56796-7479-46d3-aa12-8415c6b58020}, !- Handle
  1.2,                                    !- Heating Sizing Factor
  1.2,                                    !- Cooling Sizing Factor
  4;                                      !- Timesteps in Averaging Window

OS:Schedule:Compact,
  {2a0696e7-2395-4829-b715-c46e1c06b4ef}, !- Handle
  CLOTHING_SCH,                           !- Name
  ,                                       !- Schedule Type Limits Name
  Through: 04/30,                         !- Field 1
  For: AllDays,                           !- Field 2
  Until: 24:00,                           !- Field 3
  1.0,                                    !- Field 4
  Through: 09/30,                         !- Field 5
  For: AllDays,                           !- Field 6
  Until: 24:00,                           !- Field 7
  0.5,                                    !- Field 8
  Through: 12/31,                         !- Field 9
  For: AllDays,                           !- Field 10
  Until: 24:00,                           !- Field 11
  1.0;                                    !- Field 12

OS:ScheduleTypeLimits,
  {a5f45f93-ff45-44d5-8701-bc42cae05f0d}, !- Handle
  {8b9e673c-ac60-492c-9fe6-5078a316425a}; !- Name

OS:Material,
  {56924a5e-f961-481e-8aba-33261bc16ab5}, !- Handle
  1/2IN Gypsum,                           !- Name
  Smooth,                                 !- Roughness
  0.0127,                                 !- Thickness {m}
  0.16,                                   !- Conductivity {W/m-K}
  784.9,                                  !- Density {kg/m3}
  830,                                    !- Specific Heat {J/kg-K}
  0.9,                                    !- Thermal Absorptance
  0.92,                                   !- Solar Absorptance
  0.92;                                   !- Visible Absorptance

OS:Meter,
  {c13f89ee-347f-4a7e-80a3-f4e8dccc040e}, !- Handle
  Heating:Electricity,                    !- Name
  hourly,                                 !- Reporting Frequency
  False,                                  !- Meter File Only
  False;                                  !- Cumulative

OS:Surface,
  {99d722a6-1d60-4ba5-81cb-434988d34b94}, !- Handle
  attic-floor-kitchen,                    !- Name
  Floor,                                  !- Surface Type
  {1cec6e2e-13e0-48c0-9f2b-ef3774246fab}, !- Construction Name
  {7075584e-f646-4594-b341-5c988d9e2570}, !- Space Name
  Surface,                                !- Outside Boundary Condition
  {500a929f-43e7-4cb8-9dac-631deb3189d9}, !- Outside Boundary Condition Object
  NoSun,                                  !- Sun Exposure
  NoWind,                                 !- Wind Exposure
  ,                                       !- View Factor to Ground
  ,                                       !- Number of Vertices
  22.6087, 22.6087, 0,                    !- X,Y,Z Vertex 1 {m}
  22.6087, 16.4427, 0,                    !- X,Y,Z Vertex 2 {m}
  0, 16.4427, 0,                          !- X,Y,Z Vertex 3 {m}
  0, 22.6087, 0;                          !- X,Y,Z Vertex 4 {m}

OS:Construction,
  {1cec6e2e-13e0-48c0-9f2b-ef3774246fab}, !- Handle
  Attic Non-res Floor,                    !- Name
  ,                                       !- Surface Rendering Name
  {56924a5e-f961-481e-8aba-33261bc16ab5}, !- Layer 1
  {0591104a-b37b-428b-be50-9f11a37c2082}, !- Layer 2
  {56924a5e-f961-481e-8aba-33261bc16ab5}; !- Layer 3

OS:Material,
  {0591104a-b37b-428b-be50-9f11a37c2082}, !- Handle
  AtticFloor NonRes Insulation,           !- Name
  MediumRough,                            !- Roughness
  0.236804989096202,                      !- Thickness {m}
  0.049,                                  !- Conductivity {W/m-K}
  265,                                    !- Density {kg/m3}
  836.8,                                  !- Specific Heat {J/kg-K}
  0.9,                                    !- Thermal Absorptance
  0.7,                                    !- Solar Absorptance
  0.7;                                    !- Visible Absorptance

OS:Space,
  {7075584e-f646-4594-b341-5c988d9e2570}, !- Handle
  attic,                                  !- Name
  {3a1c3e61-7c92-40ce-b651-e460a720ed31}, !- Space Type Name
  ,                                       !- Default Construction Set Name
  ,                                       !- Default Schedule Set Name
  0,                                      !- Direction of Relative North {deg}
  0,                                      !- X Origin {m}
  0,                                      !- Y Origin {m}
  3.0488,                                 !- Z Origin {m}
  {9842abf5-b259-483d-8816-b54cfe328d8b}, !- Building Story Name
  ,                                       !- Thermal Zone Name
  No;                                     !- Part of Total Floor Area

OS:Schedule:Compact,
  {86df83d4-a831-4d63-bc3c-1a7374310f69}, !- Handle
  Kitchen_Case:1_WALKINFREEZER_CaseDefrost2aDaySched, !- Name
  {aee99a07-7c5d-4fbb-9937-314cab9777ff}, !- Schedule Type Limits Name
  Through: 12/31,                         !- Field 1
  For:AllDays,                            !- Field 2
  Interpolate:Yes,                        !- Field 3
  Until: 11:00,                           !- Field 4
  0,                                      !- Field 5
  Until: 11:20,                           !- Field 6
  1,                                      !- Field 7
  Until: 23:00,                           !- Field 8
  0,                                      !- Field 9
  Until: 23:20,                           !- Field 10
  1,                                      !- Field 11
  Until: 24:00,                           !- Field 12
  0;                                      !- Field 13

OS:ScheduleTypeLimits,
  {aee99a07-7c5d-4fbb-9937-314cab9777ff}, !- Handle
  On/Off,                                 !- Name
  0,                                      !- Lower Limit Value {BasedOnField A4}
  1,                                      !- Upper Limit Value {BasedOnField A4}
  DISCRETE,                               !- Numeric Type
  Availability;                           !- Unit Type

OS:Meter,
  {67fa6911-4fe3-46ce-a69b-2f1dc1327c0f}, !- Handle
  WaterSystems:Gas,                       !- Name
  hourly,                                 !- Reporting Frequency
  False,                                  !- Meter File Only
  False;                                  !- Cumulative

OS:Space,
  {fe7a67fe-c073-44d5-832e-90fed078c207}, !- Handle
  Kitchen,                                !- Name
  {8d754f67-2721-4407-9197-fa9f4affa3b0}, !- Space Type Name
  ,                                       !- Default Construction Set Name
  ,                                       !- Default Schedule Set Name
  0,                                      !- Direction of Relative North {deg}
  0,                                      !- X Origin {m}
  0,                                      !- Y Origin {m}
  0,                                      !- Z Origin {m}
  {8c4d5a2d-5ed3-48ce-8ab8-5a3d4b015a45}, !- Building Story Name
  {528715d0-d734-42c1-be51-953badd4bd73}, !- Thermal Zone Name
  Yes,                                    !- Part of Total Floor Area
  {e0816259-9797-4fee-9d80-f4f258cc66df}; !- Design Specification Outdoor Air Object Name

OS:Schedule:Compact,
  {d22cadd8-bce9-45ca-be1f-d845a1128fa1}, !- Handle
  HTGSETP_KITCHEN_SCH,                    !- Name
  {18e295a2-49b7-4339-85d6-f516b16035ce}, !- Schedule Type Limits Name
  Through: 12/31,                         !- Field 1
  For: SummerDesignDay,                   !- Field 2
  Until: 24:00,                           !- Field 3
  15.6,                                   !- Field 4
  For: WinterDesignDay,                   !- Field 5
  Until: 24:00,                           !- Field 6
  19,                                     !- Field 7
  For: AllOtherDays,                      !- Field 8
  Until: 01:00,                           !- Field 9
  19,                                     !- Field 10
  Until: 05:00,                           !- Field 11
  15.6,                                   !- Field 12
  Until: 24:00,                           !- Field 13
  19;                                     !- Field 14

OS:ScheduleTypeLimits,
  {18e295a2-49b7-4339-85d6-f516b16035ce}, !- Handle
  Temperature,                            !- Name
  -60,                                    !- Lower Limit Value {BasedOnField A4}
  200,                                    !- Upper Limit Value {BasedOnField A4}
  CONTINUOUS,                             !- Numeric Type
  Temperature;                            !- Unit Type

OS:Schedule:Compact,
  {b7e7bfc8-94bf-478a-b94c-9dc29346a8bd}, !- Handle
  CLGSETP_KITCHEN_SCH,                    !- Name
  {18e295a2-49b7-4339-85d6-f516b16035ce}, !- Schedule Type Limits Name
  Through: 12/31,                         !- Field 1
  For: WinterDesignDay,                   !- Field 2
  Until: 24:00,                           !- Field 3
  30,                                     !- Field 4
  For: AllOtherDays,                      !- Field 5
  Until: 01:00,                           !- Field 6
  26,                                     !- Field 7
  Until: 05:00,                           !- Field 8
  30,                                     !- Field 9
  Until: 24:00,                           !- Field 10
  26;                                     !- Field 11

OS:DesignSpecification:OutdoorAir,
  {e0816259-9797-4fee-9d80-f4f258cc66df}, !- Handle
  SZ DSOA Kitchen,                        !- Name
  ,                                       !- Outdoor Air Method
  0.008,                                  !- Outdoor Air Flow per Person {m3/s-person}
  ,                                       !- Outdoor Air Flow per Floor Area {m3/s-m2}
  ,                                       !- Outdoor Air Flow Rate {m3/s}
  ,                                       !- Outdoor Air Flow Air Changes per Hour {1/hr}
  ;                                       !- Outdoor Air Flow Rate Fraction Schedule Name

OS:Surface,
  {9f78569a-9041-47c1-abec-1b67b23e1a9c}, !- Handle
  attic-floor-dining,                     !- Name
  Floor,                                  !- Surface Type
  {1cec6e2e-13e0-48c0-9f2b-ef3774246fab}, !- Construction Name
  {7075584e-f646-4594-b341-5c988d9e2570}, !- Space Name
  Surface,                                !- Outside Boundary Condition
  {08ecdf46-74e4-476a-8241-6aa8aab7fbbe}, !- Outside Boundary Condition Object
  NoSun,                                  !- Sun Exposure
  NoWind,                                 !- Wind Exposure
  ,                                       !- View Factor to Ground
  ,                                       !- Number of Vertices
  22.6087, 16.4427, 0,                    !- X,Y,Z Vertex 1 {m}
  22.6087, 0, 0,                          !- X,Y,Z Vertex 2 {m}
  0, 0, 0,                                !- X,Y,Z Vertex 3 {m}
  0, 16.4427, 0;                          !- X,Y,Z Vertex 4 {m}

OS:ScheduleTypeLimits,
  {194dce37-61f2-46df-9b16-70f1a616486a}, !- Handle
  {3a347f85-918a-49b6-9985-dd6815b9f10f}; !- Name

OS:Surface,
  {bde0504b-3d50-4bbf-88ed-41ce3844feb3}, !- Handle
  Kitchen_Wall_North,                     !- Name
  Wall,                                   !- Surface Type
  {5b763075-3b00-4c7c-a223-d912cb94d407}, !- Construction Name
  {fe7a67fe-c073-44d5-832e-90fed078c207}, !- Space Name
  Outdoors,                               !- Outside Boundary Condition
  ,                                       !- Outside Boundary Condition Object
  SunExposed,                             !- Sun Exposure
  WindExposed,                            !- Wind Exposure
  ,                                       !- View Factor to Ground
  ,                                       !- Number of Vertices
  22.6087, 22.6087, 3.0488,               !- X,Y,Z Vertex 1 {m}
  22.6087, 22.6087, 0,                    !- X,Y,Z Vertex 2 {m}
  0, 22.6087, 0,                          !- X,Y,Z Vertex 3 {m}
  0, 22.6087, 3.0488;                     !- X,Y,Z Vertex 4 {m}

OS:Construction,
  {5b763075-3b00-4c7c-a223-d912cb94d407}, !- Handle
  Steel Frame Non-res Ext Wall,           !- Name
  ,                                       !- Surface Rendering Name
  {fc71d02b-ca1f-42fb-83cc-5db96a27aed2}, !- Layer 1
  {623718fa-911e-42a0-8b48-7abc734623e1}, !- Layer 2
  {56924a5e-f961-481e-8aba-33261bc16ab5}; !- Layer 3

OS:Material,
  {fc71d02b-ca1f-42fb-83cc-5db96a27aed2}, !- Handle
  Wood Siding,                            !- Name
  MediumSmooth,                           !- Roughness
  0.01,                                   !- Thickness {m}
  0.11,                                   !- Conductivity {W/m-K}
  544.62,                                 !- Density {kg/m3}
  1210,                                   !- Specific Heat {J/kg-K}
  0.9,                                    !- Thermal Absorptance
  0.78,                                   !- Solar Absorptance
  0.78;                                   !- Visible Absorptance

OS:Material,
  {623718fa-911e-42a0-8b48-7abc734623e1}, !- Handle
  Steel Frame NonRes Wall Insulation,     !- Name
  MediumRough,                            !- Roughness
  0.0870564552646045,                     !- Thickness {m}
  0.049,                                  !- Conductivity {W/m-K}
  265,                                    !- Density {kg/m3}
  836.8,                                  !- Specific Heat {J/kg-K}
  0.9,                                    !- Thermal Absorptance
  0.7,                                    !- Solar Absorptance
  0.7;                                    !- Visible Absorptance

OS:Material,
  {d7521d5f-a976-4d10-aabe-adb660ea4307}, !- Handle
  Std AC02,                               !- Name
  MediumSmooth,                           !- Roughness
  0.0127,                                 !- Thickness {m}
  0.057,                                  !- Conductivity {W/m-K}
  288,                                    !- Density {kg/m3}
  1339,                                   !- Specific Heat {J/kg-K}
  0.9,                                    !- Thermal Absorptance
  0.7,                                    !- Solar Absorptance
  0.2;                                    !- Visible Absorptance

OS:Meter,
  {113b1b3e-5ddd-45c4-85ca-287616b87ab0}, !- Handle
  Cooling:Electricity,                    !- Name
  hourly,                                 !- Reporting Frequency
  False,                                  !- Meter File Only
  False;                                  !- Cumulative

OS:Schedule:Compact,
  {bb5f8b8e-bfa8-4417-a232-652f986997ef}, !- Handle
  PlantOnSched,                           !- Name
  {aee99a07-7c5d-4fbb-9937-314cab9777ff}, !- Schedule Type Limits Name
  Through: 12/31,                         !- Field 1
  For: AllDays,                           !- Field 2
  Until: 24:00,                           !- Field 3
  1.0;                                    !- Field 4

OS:Meter,
  {f96621a3-8ecd-4c71-86ec-a96e9f9a554b}, !- Handle
  InteriorEquipment:Gas,                  !- Name
  hourly,                                 !- Reporting Frequency
  False,                                  !- Meter File Only
  False;                                  !- Cumulative

OS:Surface,
  {1b390dec-618f-4f51-a99f-7e79979e9db8}, !- Handle
  east-roof,                              !- Name
  RoofCeiling,                            !- Surface Type
  {2248292a-30bc-442f-ba43-db182f715ea0}, !- Construction Name
  {7075584e-f646-4594-b341-5c988d9e2570}, !- Space Name
  Outdoors,                               !- Outside Boundary Condition
  ,                                       !- Outside Boundary Condition Object
  SunExposed,                             !- Sun Exposure
  WindExposed,                            !- Wind Exposure
  ,                                       !- View Factor to Ground
  ,                                       !- Number of Vertices
  11.3044, 3.769, 3.7692,                 !- X,Y,Z Vertex 1 {m}
  22.6087, 0, 0,                          !- X,Y,Z Vertex 2 {m}
  22.6087, 22.6087, 0,                    !- X,Y,Z Vertex 3 {m}
  11.3044, 18.8397, 3.7692;               !- X,Y,Z Vertex 4 {m}

OS:Construction,
  {2248292a-30bc-442f-ba43-db182f715ea0}, !- Handle
  Attic Non-res Roof,                     !- Name
  ,                                       !- Surface Rendering Name
  {459d8ffc-a61a-4ab3-a366-c664f63584c5}, !- Layer 1
  {4a13134a-f496-4154-a94a-c14d5e4f710b}; !- Layer 2

OS:Material,
  {459d8ffc-a61a-4ab3-a366-c664f63584c5}, !- Handle
  Roof Membrane,                          !- Name
  VeryRough,                              !- Roughness
  0.0095,                                 !- Thickness {m}
  0.16,                                   !- Conductivity {W/m-K}
  1121.29,                                !- Density {kg/m3}
  1460,                                   !- Specific Heat {J/kg-K}
  0.9,                                    !- Thermal Absorptance
  0.7,                                    !- Solar Absorptance
  0.7;                                    !- Visible Absorptance

OS:Material,
  {4a13134a-f496-4154-a94a-c14d5e4f710b}, !- Handle
  Metal Decking,                          !- Name
  MediumSmooth,                           !- Roughness
  0.0015,                                 !- Thickness {m}
  45.006,                                 !- Conductivity {W/m-K}
  7680,                                   !- Density {kg/m3}
  418.4,                                  !- Specific Heat {J/kg-K}
  0.9,                                    !- Thermal Absorptance
  0.7,                                    !- Solar Absorptance
  0.3;                                    !- Visible Absorptance

OS:Schedule:Compact,
  {d828bd49-71e0-4453-8b36-b8129513952f}, !- Handle
  SWHSys1 Water Heater Ambient Temperature Schedule Name, !- Name
  {18e295a2-49b7-4339-85d6-f516b16035ce}, !- Schedule Type Limits Name
  Through: 12/31,                         !- Field 1
  For: AllDays,                           !- Field 2
  Until: 24:00,                           !- Field 3
  22.0;                                   !- Field 4

OS:ScheduleTypeLimits,
  {80a6d226-4335-4bf0-be7b-baadb73919df}, !- Handle
  {9e7d23e0-a1c4-4b25-af4f-863229ef2470}; !- Name

OS:ScheduleTypeLimits,
  {67267139-c456-4949-8083-fdcc17f86658}, !- Handle
  Humidity,                               !- Name
  10,                                     !- Lower Limit Value {BasedOnField A4}
  90,                                     !- Upper Limit Value {BasedOnField A4}
  CONTINUOUS;                             !- Numeric Type

OS:Curve:Biquadratic,
  {8f69a1d8-aa66-4ffe-9021-ab5d4252c659}, !- Handle
  Cool-Cap-fT,                            !- Name
  0.9712123,                              !- Coefficient1 Constant
  -0.015275502,                           !- Coefficient2 x
  0.0014434524,                           !- Coefficient3 x**2
  -0.00039321,                            !- Coefficient4 y
  -6.8364e-006,                           !- Coefficient5 y**2
  -0.0002905956,                          !- Coefficient6 x*y
  -100,                                   !- Minimum Value of x {BasedOnField A2}
  100,                                    !- Maximum Value of x {BasedOnField A2}
  -100,                                   !- Minimum Value of y {BasedOnField A3}
  100;                                    !- Maximum Value of y {BasedOnField A3}

OS:People:Definition,
  {b807ee59-3bc0-4cc3-976d-800ad93e937c}, !- Handle
  Dining People Definition,               !- Name
  Area/Person,                            !- Number of People Calculation Method
  ,                                       !- Number of People {people}
  ,                                       !- People per Space Floor Area {person/m2}
  1.39,                                   !- Space Floor Area per Person {m2/person}
  0.3,                                    !- Fraction Radiant
  ,                                       !- Sensible Heat Fraction
  ,                                       !- Carbon Dioxide Generation Rate {m3/s-W}
  No,                                     !- Enable ASHRAE 55 Comfort Warnings
  ZoneAveraged;                           !- Mean Radiant Temperature Calculation Type

OS:People,
  {6d58444a-c756-4562-8dc3-9a3e79c97bde}, !- Handle
  Dining People,                          !- Name
  {b807ee59-3bc0-4cc3-976d-800ad93e937c}, !- People Definition Name
  {52f3e4d6-2a0c-4c64-bd79-9a8d846bdfe2}, !- Space or SpaceType Name
  {5808ada0-fcbf-467d-b66c-f511d3e3a7cc}, !- Number of People Schedule Name
  {9d58f4d7-2de2-4b4e-a9e1-b14797275626}, !- Activity Level Schedule Name
  ,                                       !- Surface Name/Angle Factor List Name
  {d131df59-556f-4c3e-970b-76e21aa190d5}; !- Work Efficiency Schedule Name

OS:Space,
  {52f3e4d6-2a0c-4c64-bd79-9a8d846bdfe2}, !- Handle
  Dining,                                 !- Name
  {6f589e9e-149d-46d6-9927-05cb2c615f5a}, !- Space Type Name
  ,                                       !- Default Construction Set Name
  ,                                       !- Default Schedule Set Name
  0,                                      !- Direction of Relative North {deg}
  0,                                      !- X Origin {m}
  0,                                      !- Y Origin {m}
  0,                                      !- Z Origin {m}
  {8c4d5a2d-5ed3-48ce-8ab8-5a3d4b015a45}, !- Building Story Name
  {a8ba1a2e-3213-4579-af27-99592925673a}, !- Thermal Zone Name
  Yes,                                    !- Part of Total Floor Area
  {f6c9ff2d-ad23-40b3-8cd2-78c9547bd054}; !- Design Specification Outdoor Air Object Name

OS:Schedule:Compact,
  {8f99d7cc-088a-4d3e-b5aa-ca8f512d2b99}, !- Handle
  HTGSETP_SCH,                            !- Name
  {18e295a2-49b7-4339-85d6-f516b16035ce}, !- Schedule Type Limits Name
  Through: 12/31,                         !- Field 1
  For: SummerDesignDay,                   !- Field 2
  Until: 24:00,                           !- Field 3
  15.6,                                   !- Field 4
  For: WinterDesignDay,                   !- Field 5
  Until: 24:00,                           !- Field 6
  21,                                     !- Field 7
  For: AllOtherDays,                      !- Field 8
  Until: 01:00,                           !- Field 9
  21,                                     !- Field 10
  Until: 05:00,                           !- Field 11
  15.6,                                   !- Field 12
  Until: 24:00,                           !- Field 13
  21;                                     !- Field 14

OS:Schedule:Compact,
  {794ac165-b1b2-4b9c-9cb6-e73758162317}, !- Handle
  CLGSETP_SCH,                            !- Name
  {18e295a2-49b7-4339-85d6-f516b16035ce}, !- Schedule Type Limits Name
  Through: 12/31,                         !- Field 1
  For: WinterDesignDay,                   !- Field 2
  Until: 24:00,                           !- Field 3
  30,                                     !- Field 4
  For: AllOtherDays,                      !- Field 5
  Until: 01:00,                           !- Field 6
  24,                                     !- Field 7
  Until: 05:00,                           !- Field 8
  30,                                     !- Field 9
  Until: 24:00,                           !- Field 10
  24;                                     !- Field 11

OS:Schedule:Compact,
  {5808ada0-fcbf-467d-b66c-f511d3e3a7cc}, !- Handle
  BLDG_OCC_SCH,                           !- Name
  {9b0c2664-4454-4bef-9727-883d37d0581a}, !- Schedule Type Limits Name
  Through: 12/31,                         !- Field 1
  For: Weekdays,                          !- Field 2
  Until: 01:00,                           !- Field 3
  0.05,                                   !- Field 4
  Until: 05:00,                           !- Field 5
  0.0,                                    !- Field 6
  Until: 06:00,                           !- Field 7
  0.05,                                   !- Field 8
  Until: 07:00,                           !- Field 9
  0.1,                                    !- Field 10
  Until: 10:00,                           !- Field 11
  0.4,                                    !- Field 12
  Until: 11:00,                           !- Field 13
  0.2,                                    !- Field 14
  Until: 12:00,                           !- Field 15
  0.5,                                    !- Field 16
  Until: 13:00,                           !- Field 17
  0.8,                                    !- Field 18
  Until: 14:00,                           !- Field 19
  0.7,                                    !- Field 20
  Until: 15:00,                           !- Field 21
  0.4,                                    !- Field 22
  Until: 16:00,                           !- Field 23
  0.2,                                    !- Field 24
  Until: 17:00,                           !- Field 25
  0.25,                                   !- Field 26
  Until: 18:00,                           !- Field 27
  0.5,                                    !- Field 28
  Until: 21:00,                           !- Field 29
  0.8,                                    !- Field 30
  Until: 22:00,                           !- Field 31
  0.5,                                    !- Field 32
  Until: 23:00,                           !- Field 33
  0.35,                                   !- Field 34
  Until: 24:00,                           !- Field 35
  0.2,                                    !- Field 36
  For: SummerDesignDay,                   !- Field 37
  Until: 24:00,                           !- Field 38
  1.0,                                    !- Field 39
  For: WinterDesignDay,                   !- Field 40
  Until: 24:00,                           !- Field 41
  0.0,                                    !- Field 42
  For: Saturday,                          !- Field 43
  Until: 01:00,                           !- Field 44
  0.05,                                   !- Field 45
  Until: 06:00,                           !- Field 46
  0.0,                                    !- Field 47
  Until: 07:00,                           !- Field 48
  0.05,                                   !- Field 49
  Until: 09:00,                           !- Field 50
  0.5,                                    !- Field 51
  Until: 10:00,                           !- Field 52
  0.4,                                    !- Field 53
  Until: 11:00,                           !- Field 54
  0.2,                                    !- Field 55
  Until: 12:00,                           !- Field 56
  0.45,                                   !- Field 57
  Until: 14:00,                           !- Field 58
  0.5,                                    !- Field 59
  Until: 15:00,                           !- Field 60
  0.35,                                   !- Field 61
  Until: 18:00,                           !- Field 62
  0.3,                                    !- Field 63
  Until: 19:00,                           !- Field 64
  0.7,                                    !- Field 65
  Until: 20:00,                           !- Field 66
  0.9,                                    !- Field 67
  Until: 21:00,                           !- Field 68
  0.7,                                    !- Field 69