
OS:Version,
  {48a88c89-ad31-4e23-ba6b-7431c36849b6}, !- Handle
  1.8.0;                                  !- Version Identifier

OS:Site,
  {2ea72070-8303-4ffd-9352-8d719e8ae76a}, !- Handle
  USA IL-CHICAGO-OHARE,                   !- Name
  41.77,                                  !- Latitude {deg}
  -87.75,                                 !- Longitude {deg}
  -6,                                     !- Time Zone {hr}
  190,                                    !- Elevation {m}
  City;                                   !- Terrain

OS:SimulationControl,
  {861c7f3f-1ae0-4559-90c1-a4aaf3e484fb}, !- Handle
  Yes,                                    !- Do Zone Sizing Calculation
  Yes,                                    !- Do System Sizing Calculation
  Yes,                                    !- Do Plant Sizing Calculation
  No,                                     !- Run Simulation for Sizing Periods
  Yes,                                    !- Run Simulation for Weather File Run Periods
  0.04,                                   !- Loads Convergence Tolerance Value
  0.2,                                    !- Temperature Convergence Tolerance Value {deltaC}
  FullInteriorAndExterior,                !- Solar Distribution
  25,                                     !- Maximum Number of Warmup Days
  6;                                      !- Minimum Number of Warmup Days

OS:Construction,
  {da4ef8fd-6b68-45df-909f-191fdc8fcd4c}, !- Handle
  Attic Non-res Floor,                    !- Name
  ,                                       !- Surface Rendering Name
  {de15fbc7-d039-4487-b91b-0e81c7267b83}, !- Layer 1
  {e06f35f0-a86f-4287-b158-7162fb65c3b1}, !- Layer 2
  {de15fbc7-d039-4487-b91b-0e81c7267b83}; !- Layer 3

OS:Material,
  {de15fbc7-d039-4487-b91b-0e81c7267b83}, !- Handle
  1/2IN Gypsum,                           !- Name
  Smooth,                                 !- Roughness
  0.0127,                                 !- Thickness {m}
  0.16,                                   !- Conductivity {W/m-K}
  784.9,                                  !- Density {kg/m3}
  830,                                    !- Specific Heat {J/kg-K}
  0.9,                                    !- Thermal Absorptance
  0.92,                                   !- Solar Absorptance
  0.92;                                   !- Visible Absorptance

OS:Material,
  {e06f35f0-a86f-4287-b158-7162fb65c3b1}, !- Handle
  AtticFloor NonRes Insulation,           !- Name
  MediumRough,                            !- Roughness
  0.236804989096202,                      !- Thickness {m}
  0.049,                                  !- Conductivity {W/m-K}
  265,                                    !- Density {kg/m3}
  836.8,                                  !- Specific Heat {J/kg-K}
  0.9,                                    !- Thermal Absorptance
  0.7,                                    !- Solar Absorptance
  0.7;                                    !- Visible Absorptance

OS:Curve:Quadratic,
  {5503b5a7-dc8d-43ba-b5f7-72610ae732f6}, !- Handle
  Measured_CoolCStandard10Ton_EIRFFF,     !- Name
  1.192,                                  !- Coefficient1 Constant
  -0.1917,                                !- Coefficient2 x
  0,                                      !- Coefficient3 x**2
  0.776,                                  !- Minimum Value of x {BasedOnField A2}
  1.197;                                  !- Maximum Value of x {BasedOnField A2}

OS:Meter,
  {3fd86d5a-b1c4-4034-b239-ad0e4132a6fa}, !- Handle
  InteriorLights:Electricity,             !- Name
  hourly,                                 !- Reporting Frequency
  False,                                  !- Meter File Only
  False;                                  !- Cumulative

OS:Schedule:Compact,
  {2579159b-6b41-476d-8214-b26d9e04a69b}, !- Handle
  Kitchen Water Equipment Hot Supply Temp Sched, !- Name
  {1b527f98-0bc4-4067-89bb-57ebb0ba11ce}, !- Schedule Type Limits Name
  Through: 12/31,                         !- Field 1
  For: AllDays,                           !- Field 2
  Until: 24:00,                           !- Field 3
  49;                                     !- Field 4

OS:ScheduleTypeLimits,
  {1b527f98-0bc4-4067-89bb-57ebb0ba11ce}, !- Handle
  Temperature,                            !- Name
  -60,                                    !- Lower Limit Value {BasedOnField A4}
  200,                                    !- Upper Limit Value {BasedOnField A4}
  CONTINUOUS,                             !- Numeric Type
  Temperature;                            !- Unit Type

OS:Meter,
  {be059b4f-aa61-4028-ba14-82073fcf638f}, !- Handle
  ExteriorLights:Electricity,             !- Name
  hourly,                                 !- Reporting Frequency
  False,                                  !- Meter File Only
  False;                                  !- Cumulative

OS:Curve:Quadratic,
  {68bd066e-d11c-4def-8e75-2d5145219d47}, !- Handle
  No_PLR_Degredation,                     !- Name
  1,                                      !- Coefficient1 Constant
  0,                                      !- Coefficient2 x
  0,                                      !- Coefficient3 x**2
  0,                                      !- Minimum Value of x {BasedOnField A2}
  1;                                      !- Maximum Value of x {BasedOnField A2}

OS:Schedule:Compact,
  {51ec45a4-1416-4617-aa4b-79a7bf29a069}, !- Handle
  SWHSys1 Water Heater Ambient Temperature Schedule Name, !- Name
  {1b527f98-0bc4-4067-89bb-57ebb0ba11ce}, !- Schedule Type Limits Name
  Through: 12/31,                         !- Field 1
  For: AllDays,                           !- Field 2
  Until: 24:00,                           !- Field 3
  22.0;                                   !- Field 4

OS:ScheduleTypeLimits,
  {1328231b-b49c-480f-b604-5dede3743a8a}, !- Handle
  {76aea61a-9fcd-4a25-826d-5acee9153d97}; !- Name

OS:Schedule:Compact,
  {5e2cb281-207f-4267-8544-ad656af1bb65}, !- Handle
  BLDG_SWH_SCH,                           !- Name
  {503265a4-c1c2-4ba9-b8e9-6d3aa79f3395}, !- Schedule Type Limits Name
  Through: 12/31,                         !- Field 1
  For: Weekdays SummerDesignDay,          !- Field 2
  Until: 01:00,                           !- Field 3
  0.2,                                    !- Field 4
  Until: 06:00,                           !- Field 5
  0.0,                                    !- Field 6
  Until: 07:00,                           !- Field 7
  0.15,                                   !- Field 8
  Until: 08:00,                           !- Field 9
  0.6,                                    !- Field 10
  Until: 09:00,                           !- Field 11
  0.55,                                   !- Field 12
  Until: 10:00,                           !- Field 13
  0.45,                                   !- Field 14
  Until: 11:00,                           !- Field 15
  0.4,                                    !- Field 16
  Until: 12:00,                           !- Field 17
  0.45,                                   !- Field 18
  Until: 13:00,                           !- Field 19
  0.4,                                    !- Field 20
  Until: 14:00,                           !- Field 21
  0.35,                                   !- Field 22
  Until: 17:00,                           !- Field 23
  0.3,                                    !- Field 24
  Until: 18:00,                           !- Field 25
  0.4,                                    !- Field 26
  Until: 19:00,                           !- Field 27
  0.55,                                   !- Field 28
  Until: 20:00,                           !- Field 29
  0.6,                                    !- Field 30
  Until: 21:00,                           !- Field 31
  0.5,                                    !- Field 32
  Until: 22:00,                           !- Field 33
  0.55,                                   !- Field 34
  Until: 23:00,                           !- Field 35
  0.45,                                   !- Field 36
  Until: 24:00,                           !- Field 37
  0.25,                                   !- Field 38
  For: Saturday WinterDesignDay,          !- Field 39
  Until: 01:00,                           !- Field 40
  0.2,                                    !- Field 41
  Until: 06:00,                           !- Field 42
  0.0,                                    !- Field 43
  Until: 09:00,                           !- Field 44
  0.15,                                   !- Field 45
  Until: 10:00,                           !- Field 46
  0.5,                                    !- Field 47
  Until: 11:00,                           !- Field 48
  0.45,                                   !- Field 49
  Until: 13:00,                           !- Field 50
  0.5,                                    !- Field 51
  Until: 14:00,                           !- Field 52
  0.45,                                   !- Field 53
  Until: 16:00,                           !- Field 54
  0.4,                                    !- Field 55
  Until: 17:00,                           !- Field 56
  0.35,                                   !- Field 57
  Until: 18:00,                           !- Field 58
  0.4,                                    !- Field 59
  Until: 20:00,                           !- Field 60
  0.55,                                   !- Field 61
  Until: 21:00,                           !- Field 62
  0.5,                                    !- Field 63
  Until: 22:00,                           !- Field 64
  0.55,                                   !- Field 65
  Until: 23:00,                           !- Field 66
  0.4,                                    !- Field 67
  Until: 24:00,                           !- Field 68
  0.3,                                    !- Field 69
  For: Sunday Holidays AllOtherDays,      !- Field 70
  Until: 01:00,                           !- Field 71
  0.25,                                   !- Field 72
  Until: 06:00,                           !- Field 73
  0.0,                                    !- Field 74
  Until: 10:00,                           !- Field 75
  0.15,                                   !- Field 76
  Until: 12:00,                           !- Field 77
  0.5,                                    !- Field 78
  Until: 14:00,                           !- Field 79
  0.4,                                    !- Field 80
  Until: 17:00,                           !- Field 81
  0.3,                                    !- Field 82
  Until: 18:00,                           !- Field 83
  0.4,                                    !- Field 84
  Until: 20:00,                           !- Field 85
  0.5,                                    !- Field 86
  Until: 21:00,                           !- Field 87
  0.4,                                    !- Field 88
  Until: 22:00,                           !- Field 89
  0.5,                                    !- Field 90
  Until: 23:00,                           !- Field 91
  0.4,                                    !- Field 92
  Until: 24:00,                           !- Field 93
  0.2;                                    !- Field 94

OS:ScheduleTypeLimits,
  {503265a4-c1c2-4ba9-b8e9-6d3aa79f3395}, !- Handle
  Fraction,                               !- Name
  0,                                      !- Lower Limit Value {BasedOnField A4}
  1,                                      !- Upper Limit Value {BasedOnField A4}
  CONTINUOUS;                             !- Numeric Type

OS:Curve:Quadratic,
  {ae00fcb5-04aa-4583-a423-fa3bbca0d867}, !- Handle
  RACK1_RackCOPfTCurve,                   !- Name
  1.7603,                                 !- Coefficient1 Constant
  -0.0377,                                !- Coefficient2 x
  0.0004,                                 !- Coefficient3 x**2
  10,                                     !- Minimum Value of x {BasedOnField A2}
  35;                                     !- Maximum Value of x {BasedOnField A2}

OS:InternalMass:Definition,
  {ef01c3fa-b829-4fff-91cc-63d7e7657249}, !- Handle
  Kitchen Internal Mass Definition,       !- Name
  {c1c3f099-c4ad-4a0b-9c72-360cf6c63f62}, !- Construction Name
  SurfaceArea,                            !- Design Level Calculation Method
  278.8105,                               !- Surface Area {m2}
  ,                                       !- Surface Area per Space Floor Area {dimensionless}
  ;                                       !- Surface Area per Person {m2/person}

OS:Construction,
  {c1c3f099-c4ad-4a0b-9c72-360cf6c63f62}, !- Handle
  InteriorFurnishings,                    !- Name
  ,                                       !- Surface Rendering Name
  {bd363537-5263-485f-95b0-de49614e2f53}; !- Layer 1

OS:Material,
  {bd363537-5263-485f-95b0-de49614e2f53}, !- Handle
  Std Wood 6inch,                         !- Name
  MediumSmooth,                           !- Roughness
  0.15,                                   !- Thickness {m}
  0.12,                                   !- Conductivity {W/m-K}
  540,                                    !- Density {kg/m3}
  1210,                                   !- Specific Heat {J/kg-K}
  0.9,                                    !- Thermal Absorptance
  0.7,                                    !- Solar Absorptance
  0.7;                                    !- Visible Absorptance

OS:InternalMass,
  {23863c9f-5f88-4485-912f-7d60384d2842}, !- Handle
  Kitchen Internal Mass,                  !- Name
  {ef01c3fa-b829-4fff-91cc-63d7e7657249}, !- Internal Mass Definition Name
  {82c68425-99bc-43ce-8387-0c02e555881e}; !- Space or SpaceType Name

OS:Space,
  {82c68425-99bc-43ce-8387-0c02e555881e}, !- Handle
  Kitchen,                                !- Name
  {f315b2b5-dfc4-4fd4-b5e1-e25adb7536ee}, !- Space Type Name
  ,                                       !- Default Construction Set Name
  ,                                       !- Default Schedule Set Name
  0,                                      !- Direction of Relative North {deg}
  0,                                      !- X Origin {m}
  0,                                      !- Y Origin {m}
  0,                                      !- Z Origin {m}
  {e607d562-2cbf-49d7-a9c2-820d1c31ca53}, !- Building Story Name
  {95571eda-02dc-4b4a-a48d-6eeaaed293e0}, !- Thermal Zone Name
  Yes,                                    !- Part of Total Floor Area
  {20831040-75c2-4985-aba4-8efe11f23f92}; !- Design Specification Outdoor Air Object Name

OS:ThermostatSetpoint:DualSetpoint,
  {c04bc809-7507-4327-8a0f-f73aaf0043d7}, !- Handle
  {fff15e50-5026-4b2d-ae5c-529631e60b58}, !- Name
  {7e27694b-a81f-4fc7-8505-0845e93f3434}, !- Heating Setpoint Temperature Schedule Name
  {be8a448d-436c-4a97-adf5-cc53f85ad2be}; !- Cooling Setpoint Temperature Schedule Name

OS:Schedule:Compact,
  {7e27694b-a81f-4fc7-8505-0845e93f3434}, !- Handle
  HTGSETP_KITCHEN_SCH,                    !- Name
  {1b527f98-0bc4-4067-89bb-57ebb0ba11ce}, !- Schedule Type Limits Name
  Through: 12/31,                         !- Field 1
  For: SummerDesignDay,                   !- Field 2
  Until: 24:00,                           !- Field 3
  15.6,                                   !- Field 4
  For: WinterDesignDay,                   !- Field 5
  Until: 24:00,                           !- Field 6
  19,                                     !- Field 7
  For: AllOtherDays,                      !- Field 8
  Until: 01:00,                           !- Field 9
  19,                                     !- Field 10
  Until: 05:00,                           !- Field 11
  15.6,                                   !- Field 12
  Until: 24:00,                           !- Field 13
  19;                                     !- Field 14

OS:Schedule:Compact,
  {be8a448d-436c-4a97-adf5-cc53f85ad2be}, !- Handle
  CLGSETP_KITCHEN_SCH,                    !- Name
  {1b527f98-0bc4-4067-89bb-57ebb0ba11ce}, !- Schedule Type Limits Name
  Through: 12/31,                         !- Field 1
  For: WinterDesignDay,                   !- Field 2
  Until: 24:00,                           !- Field 3
  30,                                     !- Field 4
  For: AllOtherDays,                      !- Field 5
  Until: 01:00,                           !- Field 6
  26,                                     !- Field 7
  Until: 05:00,                           !- Field 8
  30,                                     !- Field 9
  Until: 24:00,                           !- Field 10
  26;                                     !- Field 11

OS:SubSurface,
  {49cad2ae-ecf0-4f8e-91ec-ae97209f548b}, !- Handle
  Dining_Wall_East_Window,                !- Name
  FixedWindow,                            !- Sub Surface Type
  {ab910d84-892f-43ab-9eaf-783e46319ffa}, !- Construction Name
  {ec307a22-cd86-4391-a0b0-aa2f931eb122}, !- Surface Name
  ,                                       !- Outside Boundary Condition Object
  ,                                       !- View Factor to Ground
  ,                                       !- Shading Control Name
  ,                                       !- Frame and Divider Name
  1,                                      !- Multiplier
  ,                                       !- Number of Vertices
  22.6087, 0.6029, 1.9817,                !- X,Y,Z Vertex 1 {m}
  22.6087, 0.6029, 1.0671,                !- X,Y,Z Vertex 2 {m}
  22.6087, 15.8398, 1.0671,               !- X,Y,Z Vertex 3 {m}
  22.6087, 15.8398, 1.9817;               !- X,Y,Z Vertex 4 {m}

OS:Construction,
  {ab910d84-892f-43ab-9eaf-783e46319ffa}, !- Handle
  Window Non-res Fixed,                   !- Name
  ,                                       !- Surface Rendering Name
  {027bea3d-ab7f-4f4f-a53b-2eefab433639}; !- Layer 1

OS:WindowMaterial:SimpleGlazingSystem,
  {027bea3d-ab7f-4f4f-a53b-2eefab433639}, !- Handle
  NonRes Fixed Assembly Window,           !- Name
  3.23646,                                !- U-Factor {W/m2-K}
  0.39;                                   !- Solar Heat Gain Coefficient

OS:Surface,
  {ec307a22-cd86-4391-a0b0-aa2f931eb122}, !- Handle
  Dining_Wall_East,                       !- Name
  Wall,                                   !- Surface Type
  {502110ea-1f31-41e7-9c4f-08987c67a4ba}, !- Construction Name
  {585b938f-ec9e-4d23-9046-7054f36b2840}, !- Space Name
  Outdoors,                               !- Outside Boundary Condition
  ,                                       !- Outside Boundary Condition Object
  SunExposed,                             !- Sun Exposure
  WindExposed,                            !- Wind Exposure
  ,                                       !- View Factor to Ground
  ,                                       !- Number of Vertices
  22.6087, 0, 3.0488,                     !- X,Y,Z Vertex 1 {m}
  22.6087, 0, 0,                          !- X,Y,Z Vertex 2 {m}
  22.6087, 16.4427, 0,                    !- X,Y,Z Vertex 3 {m}
  22.6087, 16.4427, 3.0488;               !- X,Y,Z Vertex 4 {m}

OS:Construction,
  {502110ea-1f31-41e7-9c4f-08987c67a4ba}, !- Handle
  Steel Frame Non-res Ext Wall,           !- Name
  ,                                       !- Surface Rendering Name
  {672492e4-d07c-4ec2-bf8d-24c78ce13097}, !- Layer 1
  {15859d91-2356-4d17-ab06-adfa6ee23d3b}, !- Layer 2
  {de15fbc7-d039-4487-b91b-0e81c7267b83}; !- Layer 3

OS:Material,
  {672492e4-d07c-4ec2-bf8d-24c78ce13097}, !- Handle
  Wood Siding,                            !- Name
  MediumSmooth,                           !- Roughness
  0.01,                                   !- Thickness {m}
  0.11,                                   !- Conductivity {W/m-K}
  544.62,                                 !- Density {kg/m3}
  1210,                                   !- Specific Heat {J/kg-K}
  0.9,                                    !- Thermal Absorptance
  0.78,                                   !- Solar Absorptance
  0.78;                                   !- Visible Absorptance

OS:Material,
  {15859d91-2356-4d17-ab06-adfa6ee23d3b}, !- Handle
  Steel Frame NonRes Wall Insulation,     !- Name
  MediumRough,                            !- Roughness
  0.0870564552646045,                     !- Thickness {m}
  0.049,                                  !- Conductivity {W/m-K}
  265,                                    !- Density {kg/m3}
  836.8,                                  !- Specific Heat {J/kg-K}
  0.9,                                    !- Thermal Absorptance
  0.7,                                    !- Solar Absorptance
  0.7;                                    !- Visible Absorptance

OS:Space,
  {585b938f-ec9e-4d23-9046-7054f36b2840}, !- Handle
  Dining,                                 !- Name
  {25227927-394e-4bca-b8e9-6f94b66f8481}, !- Space Type Name
  ,                                       !- Default Construction Set Name
  ,                                       !- Default Schedule Set Name
  0,                                      !- Direction of Relative North {deg}
  0,                                      !- X Origin {m}
  0,                                      !- Y Origin {m}
  0,                                      !- Z Origin {m}
  {e607d562-2cbf-49d7-a9c2-820d1c31ca53}, !- Building Story Name
  {af96c8c6-807a-4e9f-a3fa-921c79daaadc}, !- Thermal Zone Name
  Yes,                                    !- Part of Total Floor Area
  {0f795a55-cef5-472a-b5c2-da4ef817470e}; !- Design Specification Outdoor Air Object Name

OS:ThermostatSetpoint:DualSetpoint,
  {3e76056f-4456-401c-8766-dfe8cf6c488d}, !- Handle
  {65610cc3-6498-4341-b3b6-9cad99da9c86}, !- Name
  {f9f84b1e-7c9e-4a99-927e-ece84290b6eb}, !- Heating Setpoint Temperature Schedule Name
  {e1c618e4-5349-4ef2-a2de-03f07548c6ba}; !- Cooling Setpoint Temperature Schedule Name

OS:Schedule:Compact,
  {f9f84b1e-7c9e-4a99-927e-ece84290b6eb}, !- Handle
  HTGSETP_SCH,                            !- Name
  {1b527f98-0bc4-4067-89bb-57ebb0ba11ce}, !- Schedule Type Limits Name
  Through: 12/31,                         !- Field 1
  For: SummerDesignDay,                   !- Field 2
  Until: 24:00,                           !- Field 3
  15.6,                                   !- Field 4
  For: WinterDesignDay,                   !- Field 5
  Until: 24:00,                           !- Field 6
  21,                                     !- Field 7
  For: AllOtherDays,                      !- Field 8
  Until: 01:00,                           !- Field 9
  21,                                     !- Field 10
  Until: 05:00,                           !- Field 11
  15.6,                                   !- Field 12
  Until: 24:00,                           !- Field 13
  21;                                     !- Field 14

OS:Schedule:Compact,
  {e1c618e4-5349-4ef2-a2de-03f07548c6ba}, !- Handle
  CLGSETP_SCH,                            !- Name
  {1b527f98-0bc4-4067-89bb-57ebb0ba11ce}, !- Schedule Type Limits Name
  Through: 12/31,                         !- Field 1
  For: WinterDesignDay,                   !- Field 2
  Until: 24:00,                           !- Field 3
  30,                                     !- Field 4
  For: AllOtherDays,                      !- Field 5
  Until: 01:00,                           !- Field 6
  24,                                     !- Field 7
  Until: 05:00,                           !- Field 8
  30,                                     !- Field 9
  Until: 24:00,                           !- Field 10
  24;                                     !- Field 11

OS:Lights:Definition,
  {c9bdd9ce-2ca2-4567-aa13-4095e1efe264}, !- Handle
  Dining_Lights Definition,               !- Name
  Watts/Area,                             !- Design Level Calculation Method
  ,                                       !- Lighting Level {W}
  22.6,                                   !- Watts per Space Floor Area {W/m2}
  ,                                       !- Watts per Person {W/person}
  0.7,                                    !- Fraction Radiant
  0.2,                                    !- Fraction Visible
  0,                                      !- Return Air Fraction
  No;                                     !- Return Air Fraction Calculated from Plenum Temperature

OS:Lights,
  {587a4ee0-04f1-4bca-bc41-88fa24b2f66b}, !- Handle
  Dining_Lights,                          !- Name
  {c9bdd9ce-2ca2-4567-aa13-4095e1efe264}, !- Lights Definition Name
  {585b938f-ec9e-4d23-9046-7054f36b2840}, !- Space or SpaceType Name
  {9970fb2a-96e6-46eb-b979-5f3a2e18648a}, !- Schedule Name
  1,                                      !- Fraction Replaceable
  ,                                       !- Multiplier
  General;                                !- End-Use Subcategory

OS:Schedule:Compact,
  {9970fb2a-96e6-46eb-b979-5f3a2e18648a}, !- Handle
  BLDG_LIGHT_SCH,                         !- Name
  {503265a4-c1c2-4ba9-b8e9-6d3aa79f3395}, !- Schedule Type Limits Name
  Through: 12/31,                         !- Field 1
  For: SummerDesignDay,                   !- Field 2
  Until: 24:00,                           !- Field 3
  1.0,                                    !- Field 4
  For: WinterDesignDay,                   !- Field 5
  Until: 24:00,                           !- Field 6
  0.0,                                    !- Field 7
  For: Weekday Saturday Sunday Holidays AllOtherDays, !- Field 8
  Until: 01:00,                           !- Field 9
  0.45,                                   !- Field 10
  Until: 05:00,                           !- Field 11
  0.15,                                   !- Field 12
  Until: 06:00,                           !- Field 13
  0.45,                                   !- Field 14
  Until: 24:00,                           !- Field 15
  0.90;                                   !- Field 16

OS:Schedule:Compact,
  {e7cd9ba1-3131-46a2-b4bf-75507c7ce13c}, !- Handle
  Kitchen_Case:2_SELFCONTAINEDDISPLAYCASE_CaseStockingSched, !- Name
  ,                                       !- Schedule Type Limits Name
  Through: 12/31,                         !- Field 1
  For:AllDays,                            !- Field 2
  Until: 6:00,                            !- Field 3
  0.0,                                    !- Field 4
  Until: 7:00,                            !- Field 5
  50.0,                                   !- Field 6
  Until: 9:00,                            !- Field 7
  70.0,                                   !- Field 8
  Until: 10:00,                           !- Field 9
  80.0,                                   !- Field 10
  Until: 11:00,                           !- Field 11
  70.0,                                   !- Field 12
  Until: 13:00,                           !- Field 13
  50.0,                                   !- Field 14
  Until: 14:00,                           !- Field 15
  80.0,                                   !- Field 16
  Until: 15:00,                           !- Field 17
  90.0,                                   !- Field 18
  Until: 16:00,                           !- Field 19
  80.0,                                   !- Field 20
  Until: 24:00,                           !- Field 21
  0.0;                                    !- Field 22

OS:ScheduleTypeLimits,
  {db2ef1cf-abd8-43ea-b95d-240c3fa9f399}, !- Handle
  {2a4d4aa3-aede-4a2f-b565-e41b6ca605bd}; !- Name

OS:ElectricEquipment:Definition,
  {193a7285-79f4-4380-ad28-55208cac8817}, !- Handle
  Kitchen_ExhFan_Equip Definition,        !- Name
  EquipmentLevel,                         !- Design Level Calculation Method
  699,                                    !- Design Level {W}
  ,                                       !- Watts per Space Floor Area {W/m2}
  ,                                       !- Watts per Person {W/person}
  0,                                      !- Fraction Latent
  0,                                      !- Fraction Radiant
  1;                                      !- Fraction Lost

OS:ElectricEquipment,
  {64ad01a2-354c-4ef6-8459-aeac431d50b4}, !- Handle
  Kitchen_ExhFan_Equip,                   !- Name
  {193a7285-79f4-4380-ad28-55208cac8817}, !- Electric Equipment Definition Name
  {82c68425-99bc-43ce-8387-0c02e555881e}, !- Space or SpaceType Name
  {cb008dba-3c4f-425e-be8d-d99286ccc787}, !- Schedule Name
  ,                                       !- Multiplier
  KitchenExhFan;                          !- End-Use Subcategory

OS:Schedule:Compact,
  {cb008dba-3c4f-425e-be8d-d99286ccc787}, !- Handle
  Kitchen_Exhaust_SCH,                    !- Name
  {0e06aced-79ed-4cff-bace-07bada988dba}, !- Schedule Type Limits Name
  Through: 12/31,                         !- Field 1
  For: AllDays,                           !- Field 2
  Until: 01:00,                           !- Field 3
  1.0,                                    !- Field 4
  Until: 05:00,                           !- Field 5
  0.0,                                    !- Field 6
  Until: 24:00,                           !- Field 7
  1.0;                                    !- Field 8

OS:ScheduleTypeLimits,
  {0e06aced-79ed-4cff-bace-07bada988dba}, !- Handle
  On/Off,                                 !- Name
  0,                                      !- Lower Limit Value {BasedOnField A4}
  1,                                      !- Upper Limit Value {BasedOnField A4}
  DISCRETE,                               !- Numeric Type
  Availability;                           !- Unit Type

OS:Meter,
  {3fd0e54c-bacc-492a-b8bb-6e3100b72663}, !- Handle
  Gas:Facility,                           !- Name
  hourly,                                 !- Reporting Frequency
  False,                                  !- Meter File Only
  False;                                  !- Cumulative

OS:Schedule:Compact,
  {2bac0069-4e3b-4ab9-a6a4-ed926fe477f6}, !- Handle
  PlantOnSched,                           !- Name
  {0e06aced-79ed-4cff-bace-07bada988dba}, !- Schedule Type Limits Name
  Through: 12/31,                         !- Field 1
  For: AllDays,                           !- Field 2
  Until: 24:00,                           !- Field 3
  1.0;                                    !- Field 4

OS:Curve:Cubic,