
OS:Version,
  {411ee8fa-654d-4971-82cb-3bb7d3a86ff7}, !- Handle
  1.8.5;                                  !- Version Identifier

OS:Site,
  {79c107a2-ad78-48f0-82be-3c618a25beb6}, !- Handle
  USA IL-CHICAGO-OHARE,                   !- Name
  41.77,                                  !- Latitude {deg}
  -87.75,                                 !- Longitude {deg}
  -6,                                     !- Time Zone {hr}
  190,                                    !- Elevation {m}
  City;                                   !- Terrain

OS:SimulationControl,
  {05d82cf8-03c5-4b5c-8ac1-b153e9ef6032}, !- Handle
  Yes,                                    !- Do Zone Sizing Calculation
  Yes,                                    !- Do System Sizing Calculation
  Yes,                                    !- Do Plant Sizing Calculation
  No,                                     !- Run Simulation for Sizing Periods
  Yes,                                    !- Run Simulation for Weather File Run Periods
  0.04,                                   !- Loads Convergence Tolerance Value
  0.2,                                    !- Temperature Convergence Tolerance Value {deltaC}
  FullInteriorAndExterior,                !- Solar Distribution
  25,                                     !- Maximum Number of Warmup Days
  6;                                      !- Minimum Number of Warmup Days

OS:Curve:Quadratic,
  {d94be5f6-2ce7-4328-8399-86ae989fab76}, !- Handle
  Cool-PLF-fPLR,                          !- Name
  0.90949556,                             !- Coefficient1 Constant
  0.09864773,                             !- Coefficient2 x
  -0.00819488,                            !- Coefficient3 x**2
  0,                                      !- Minimum Value of x {BasedOnField A2}
  1,                                      !- Maximum Value of x {BasedOnField A2}
  0.7,                                    !- Minimum Curve Output {BasedOnField A3}
  1;                                      !- Maximum Curve Output {BasedOnField A3}

OS:Construction,
  {650b4c46-040d-4969-be1f-b9b0b053ee9e}, !- Handle
  DropCeiling,                            !- Name
  ,                                       !- Surface Rendering Name
  {547ffdda-50d0-4ed8-8b7e-bb3b3a03fd3c}; !- Layer 1

OS:Material,
  {547ffdda-50d0-4ed8-8b7e-bb3b3a03fd3c}, !- Handle
  Std AC02,                               !- Name
  MediumSmooth,                           !- Roughness
  0.0127,                                 !- Thickness {m}
  0.057,                                  !- Conductivity {W/m-K}
  288,                                    !- Density {kg/m3}
  1339,                                   !- Specific Heat {J/kg-K}
  0.9,                                    !- Thermal Absorptance
  0.7,                                    !- Solar Absorptance
  0.2;                                    !- Visible Absorptance

OS:Meter,
  {60de1b10-db56-4232-b5d2-732e2e374e55}, !- Handle
  HeatRejection:Electricity,              !- Name
  hourly,                                 !- Reporting Frequency
  False,                                  !- Meter File Only
  False;                                  !- Cumulative

OS:Schedule:Compact,
  {1c17cbdc-7dc2-4463-8a5e-ea5b5318cce3}, !- Handle
  BLDG_EQUIP_SCH,                         !- Name
  {5f6e25f9-f95b-4c3e-a513-1cf578e1cb90}, !- Schedule Type Limits Name
  Through: 12/31,                         !- Field 1
  For: Weekday,                           !- Field 2
  Until: 06:00,                           !- Field 3
  0.10,                                   !- Field 4
  Until: 07:00,                           !- Field 5
  0.25,                                   !- Field 6
  Until: 09:00,                           !- Field 7
  0.35,                                   !- Field 8
  Until: 10:00,                           !- Field 9
  0.25,                                   !- Field 10
  Until: 13:00,                           !- Field 11
  0.35,                                   !- Field 12
  Until: 16:00,                           !- Field 13
  0.25,                                   !- Field 14
  Until: 19:00,                           !- Field 15
  0.35,                                   !- Field 16
  Until: 24:00,                           !- Field 17
  0.25,                                   !- Field 18
  For: Saturday,                          !- Field 19
  Until: 06:00,                           !- Field 20
  0.10,                                   !- Field 21
  Until: 07:00,                           !- Field 22
  0.25,                                   !- Field 23
  Until: 09:00,                           !- Field 24
  0.35,                                   !- Field 25
  Until: 10:00,                           !- Field 26
  0.25,                                   !- Field 27
  Until: 13:00,                           !- Field 28
  0.35,                                   !- Field 29
  Until: 16:00,                           !- Field 30
  0.25,                                   !- Field 31
  Until: 19:00,                           !- Field 32
  0.35,                                   !- Field 33
  Until: 24:00,                           !- Field 34
  0.25,                                   !- Field 35
  For: SummerDesignDay,                   !- Field 36
  Until: 24:00,                           !- Field 37
  0.35,                                   !- Field 38
  For: WinterDesignDay,                   !- Field 39
  Until: 24:00,                           !- Field 40
  0.0,                                    !- Field 41
  For: Sunday Holidays AllOtherDays,      !- Field 42
  Until: 06:00,                           !- Field 43
  0.10,                                   !- Field 44
  Until: 07:00,                           !- Field 45
  0.25,                                   !- Field 46
  Until: 09:00,                           !- Field 47
  0.35,                                   !- Field 48
  Until: 10:00,                           !- Field 49
  0.25,                                   !- Field 50
  Until: 13:00,                           !- Field 51
  0.35,                                   !- Field 52
  Until: 16:00,                           !- Field 53
  0.25,                                   !- Field 54
  Until: 19:00,                           !- Field 55
  0.35,                                   !- Field 56
  Until: 24:00,                           !- Field 57
  0.25;                                   !- Field 58

OS:ScheduleTypeLimits,
  {5f6e25f9-f95b-4c3e-a513-1cf578e1cb90}, !- Handle
  Fraction,                               !- Name
  0,                                      !- Lower Limit Value {BasedOnField A4}
  1,                                      !- Upper Limit Value {BasedOnField A4}
  CONTINUOUS;                             !- Numeric Type

OS:Material,
  {841ed70c-3899-4d6b-b67a-4c02f09cf992}, !- Handle
  1IN Stucco,                             !- Name
  Smooth,                                 !- Roughness
  0.0253,                                 !- Thickness {m}
  0.6918,                                 !- Conductivity {W/m-K}
  1858,                                   !- Density {kg/m3}
  837,                                    !- Specific Heat {J/kg-K}
  0.9,                                    !- Thermal Absorptance
  0.92,                                   !- Solar Absorptance
  0.92;                                   !- Visible Absorptance

OS:Schedule:Compact,
  {3aa95924-c8aa-4487-84c7-b928f3678828}, !- Handle
  BLDG_LIGHT_SCH,                         !- Name
  {5f6e25f9-f95b-4c3e-a513-1cf578e1cb90}, !- Schedule Type Limits Name
  Through: 12/31,                         !- Field 1
  For: SummerDesignDay,                   !- Field 2
  Until: 24:00,                           !- Field 3
  1.0,                                    !- Field 4
  For: WinterDesignDay,                   !- Field 5
  Until: 24:00,                           !- Field 6
  0.0,                                    !- Field 7
  For: Weekday Saturday Sunday Holidays AllOtherDays, !- Field 8
  Until: 01:00,                           !- Field 9
  0.45,                                   !- Field 10
  Until: 05:00,                           !- Field 11
  0.15,                                   !- Field 12
  Until: 06:00,                           !- Field 13
  0.45,                                   !- Field 14
  Until: 24:00,                           !- Field 15
  0.90;                                   !- Field 16

OS:Space,
  {a4aef089-f5f0-44e8-888f-46122f105e30}, !- Handle
  Kitchen,                                !- Name
  {ac66e4e6-fddb-4e72-8de5-b16fec9c3421}, !- Space Type Name
  ,                                       !- Default Construction Set Name
  ,                                       !- Default Schedule Set Name
  0,                                      !- Direction of Relative North {deg}
  0,                                      !- X Origin {m}
  0,                                      !- Y Origin {m}
  0,                                      !- Z Origin {m}
  {0ef26bb5-24d3-41a7-9e5c-31b010c6f9f9}, !- Building Story Name
  {e296ef6f-10f2-42ec-b19b-cac3e57b4eda}, !- Thermal Zone Name
  Yes,                                    !- Part of Total Floor Area
  {fe7ce426-3053-47f2-99b6-82d025afae9e}; !- Design Specification Outdoor Air Object Name

OS:ThermostatSetpoint:DualSetpoint,
  {1d9b5ce8-c9f2-46fe-bbaf-e92b75759e95}, !- Handle
  {8a6f3f52-c48a-42d3-ae93-08dc9c30896b}, !- Name
  {890d3366-0a1c-42a4-950c-18e31819c106}, !- Heating Setpoint Temperature Schedule Name
  {113bb175-4380-4945-8f80-ba256ea611ad}; !- Cooling Setpoint Temperature Schedule Name

OS:Schedule:Compact,
  {890d3366-0a1c-42a4-950c-18e31819c106}, !- Handle
  HTGSETP_KITCHEN_SCH,                    !- Name
  {a2a647ac-083a-4cca-b7c0-48f8f4c1dbd0}, !- Schedule Type Limits Name
  Through: 12/31,                         !- Field 1
  For: SummerDesignDay,                   !- Field 2
  Until: 24:00,                           !- Field 3
  15.6,                                   !- Field 4
  For: WinterDesignDay,                   !- Field 5
  Until: 24:00,                           !- Field 6
  19,                                     !- Field 7
  For: AllOtherDays,                      !- Field 8
  Until: 01:00,                           !- Field 9
  19,                                     !- Field 10
  Until: 05:00,                           !- Field 11
  15.6,                                   !- Field 12
  Until: 24:00,                           !- Field 13
  19;                                     !- Field 14

OS:ScheduleTypeLimits,
  {a2a647ac-083a-4cca-b7c0-48f8f4c1dbd0}, !- Handle
  Temperature,                            !- Name
  -60,                                    !- Lower Limit Value {BasedOnField A4}
  200,                                    !- Upper Limit Value {BasedOnField A4}
  CONTINUOUS,                             !- Numeric Type
  Temperature;                            !- Unit Type

OS:Schedule:Compact,
  {113bb175-4380-4945-8f80-ba256ea611ad}, !- Handle
  CLGSETP_KITCHEN_SCH,                    !- Name
  {a2a647ac-083a-4cca-b7c0-48f8f4c1dbd0}, !- Schedule Type Limits Name
  Through: 12/31,                         !- Field 1
  For: WinterDesignDay,                   !- Field 2
  Until: 24:00,                           !- Field 3
  30,                                     !- Field 4
  For: AllOtherDays,                      !- Field 5
  Until: 01:00,                           !- Field 6
  26,                                     !- Field 7
  Until: 05:00,                           !- Field 8
  30,                                     !- Field 9
  Until: 24:00,                           !- Field 10
  26;                                     !- Field 11

OS:Surface,
  {f82567a8-cbab-4aac-bbdc-db292d991413}, !- Handle
  Kitchen_Wall_West,                      !- Name
  Wall,                                   !- Surface Type
  {358673f0-3843-4cbc-afe0-b8915964503e}, !- Construction Name
  {a4aef089-f5f0-44e8-888f-46122f105e30}, !- Space Name
  Outdoors,                               !- Outside Boundary Condition
  ,                                       !- Outside Boundary Condition Object
  SunExposed,                             !- Sun Exposure
  WindExposed,                            !- Wind Exposure
  ,                                       !- View Factor to Ground
  ,                                       !- Number of Vertices
  0, 22.6087, 3.0488,                     !- X,Y,Z Vertex 1 {m}
  0, 22.6087, 0,                          !- X,Y,Z Vertex 2 {m}
  0, 16.4427, 0,                          !- X,Y,Z Vertex 3 {m}
  0, 16.4427, 3.0488;                     !- X,Y,Z Vertex 4 {m}

OS:Construction,
  {358673f0-3843-4cbc-afe0-b8915964503e}, !- Handle
  Steel Frame Non-res Ext Wall,           !- Name
  ,                                       !- Surface Rendering Name
  {d1374e90-5d81-476d-9402-724100076fef}, !- Layer 1
  {771699ec-49cb-4848-b010-e6618aa72e70}, !- Layer 2
  {a805800b-1553-494a-9feb-b856ca36ba5a}; !- Layer 3

OS:Material,
  {d1374e90-5d81-476d-9402-724100076fef}, !- Handle
  Wood Siding,                            !- Name
  MediumSmooth,                           !- Roughness
  0.01,                                   !- Thickness {m}
  0.11,                                   !- Conductivity {W/m-K}
  544.62,                                 !- Density {kg/m3}
  1210,                                   !- Specific Heat {J/kg-K}
  0.9,                                    !- Thermal Absorptance
  0.78,                                   !- Solar Absorptance
  0.78;                                   !- Visible Absorptance

OS:Material,
  {771699ec-49cb-4848-b010-e6618aa72e70}, !- Handle
  Steel Frame NonRes Wall Insulation,     !- Name
  MediumRough,                            !- Roughness
  0.0870564552646045,                     !- Thickness {m}
  0.049,                                  !- Conductivity {W/m-K}
  265,                                    !- Density {kg/m3}
  836.8,                                  !- Specific Heat {J/kg-K}
  0.9,                                    !- Thermal Absorptance
  0.7,                                    !- Solar Absorptance
  0.7;                                    !- Visible Absorptance

OS:Material,
  {a805800b-1553-494a-9feb-b856ca36ba5a}, !- Handle
  1/2IN Gypsum,                           !- Name
  Smooth,                                 !- Roughness
  0.0127,                                 !- Thickness {m}
  0.16,                                   !- Conductivity {W/m-K}
  784.9,                                  !- Density {kg/m3}
  830,                                    !- Specific Heat {J/kg-K}
  0.9,                                    !- Thermal Absorptance
  0.92,                                   !- Solar Absorptance
  0.92;                                   !- Visible Absorptance

OS:Lights:Definition,
  {2573af55-e729-48a6-bd4a-1aab3ddcf563}, !- Handle
  Kitchen_Lights Definition,              !- Name
  Watts/Area,                             !- Design Level Calculation Method
  ,                                       !- Lighting Level {W}
  12.9,                                   !- Watts per Space Floor Area {W/m2}
  ,                                       !- Watts per Person {W/person}
  0.7,                                    !- Fraction Radiant
  0.2,                                    !- Fraction Visible
  0,                                      !- Return Air Fraction
  No;                                     !- Return Air Fraction Calculated from Plenum Temperature

OS:Lights,
  {2cbfff93-3129-4cc0-94d7-fa5a6aea6a16}, !- Handle
  Kitchen_Lights,                         !- Name
  {2573af55-e729-48a6-bd4a-1aab3ddcf563}, !- Lights Definition Name
  {a4aef089-f5f0-44e8-888f-46122f105e30}, !- Space or SpaceType Name
  {3aa95924-c8aa-4487-84c7-b928f3678828}, !- Schedule Name
  1,                                      !- Fraction Replaceable
  ,                                       !- Multiplier
  General;                                !- End-Use Subcategory

OS:Schedule:Compact,
  {8141994d-374f-4c6b-94cb-5d31dd6d2389}, !- Handle
  SWHSys1 Water Heater Ambient Temperature Schedule Name, !- Name
  {a2a647ac-083a-4cca-b7c0-48f8f4c1dbd0}, !- Schedule Type Limits Name
  Through: 12/31,                         !- Field 1
  For: AllDays,                           !- Field 2
  Until: 24:00,                           !- Field 3
  22.0;                                   !- Field 4

OS:Construction,
  {87850374-beee-4ba0-9ed9-a72bf7fb2ff8}, !- Handle
  Window Non-res Fixed,                   !- Name
  ,                                       !- Surface Rendering Name
  {3204af84-8d8c-4af3-9a37-f4a77b6dece3}; !- Layer 1

OS:WindowMaterial:SimpleGlazingSystem,
  {3204af84-8d8c-4af3-9a37-f4a77b6dece3}, !- Handle
  NonRes Fixed Assembly Window,           !- Name
  3.23646,                                !- U-Factor {W/m2-K}
  0.39;                                   !- Solar Heat Gain Coefficient

OS:Curve:Quadratic,
  {fac65ad1-7d86-410b-8a29-f9850d3fcefa}, !- Handle
  RACK1_RackCondFanCurve2,                !- Name
  0,                                      !- Coefficient1 Constant
  0.0286,                                 !- Coefficient2 x
  0,                                      !- Coefficient3 x**2
  0,                                      !- Minimum Value of x {BasedOnField A2}
  35;                                     !- Maximum Value of x {BasedOnField A2}

OS:Meter,
  {263a2321-cb9e-4587-ac4c-fb0c9e40db3c}, !- Handle
  Humidifier:Electricity,                 !- Name
  hourly,                                 !- Reporting Frequency
  False,                                  !- Meter File Only
  False;                                  !- Cumulative

OS:Material,
  {c1206960-14e7-4668-aa9a-d5d4630b3bba}, !- Handle
  Roof Membrane,                          !- Name
  VeryRough,                              !- Roughness
  0.0095,                                 !- Thickness {m}
  0.16,                                   !- Conductivity {W/m-K}
  1121.29,                                !- Density {kg/m3}
  1460,                                   !- Specific Heat {J/kg-K}
  0.9,                                    !- Thermal Absorptance
  0.7,                                    !- Solar Absorptance
  0.7;                                    !- Visible Absorptance

OS:Schedule:Compact,
  {0ad7d4e6-2453-41fe-9fd8-a9fddf63c828}, !- Handle
  Kitchen_Case:2_SELFCONTAINEDDISPLAYCASE_CaseStockingSched, !- Name
  ,                                       !- Schedule Type Limits Name
  Through: 12/31,                         !- Field 1
  For:AllDays,                            !- Field 2
  Until: 6:00,                            !- Field 3
  0.0,                                    !- Field 4
  Until: 7:00,                            !- Field 5
  50.0,                                   !- Field 6
  Until: 9:00,                            !- Field 7
  70.0,                                   !- Field 8
  Until: 10:00,                           !- Field 9
  80.0,                                   !- Field 10
  Until: 11:00,                           !- Field 11
  70.0,                                   !- Field 12
  Until: 13:00,                           !- Field 13
  50.0,                                   !- Field 14
  Until: 14:00,                           !- Field 15
  80.0,                                   !- Field 16
  Until: 15:00,                           !- Field 17
  90.0,                                   !- Field 18
  Until: 16:00,                           !- Field 19
  80.0,                                   !- Field 20
  Until: 24:00,                           !- Field 21
  0.0;                                    !- Field 22

OS:ScheduleTypeLimits,
  {082b4706-3b60-4705-8e44-9e75a8f8117c}, !- Handle
  {af975660-5416-4931-936a-4a7b524b4abd}; !- Name

OS:Material,
  {c340bf75-412f-4ccc-b438-2678aa26ce43}, !- Handle
  8IN CONCRETE HW,                        !- Name
  Rough,                                  !- Roughness
  0.2032,                                 !- Thickness {m}
  1.311,                                  !- Conductivity {W/m-K}
  2240,                                   !- Density {kg/m3}
  836.8,                                  !- Specific Heat {J/kg-K}
  0.9,                                    !- Thermal Absorptance
  0.7,                                    !- Solar Absorptance
  0.7;                                    !- Visible Absorptance

OS:Surface,
  {85976b7f-6c5a-4e9a-b5b2-7c1772d368dc}, !- Handle
  Dining_Floor,                           !- Name
  Floor,                                  !- Surface Type
  {de17bcc1-161d-4f48-912f-f5ef087884d5}, !- Construction Name
  {7699e2ab-c83e-4d92-8707-f4dad6f118a4}, !- Space Name
  Ground,                                 !- Outside Boundary Condition
  ,                                       !- Outside Boundary Condition Object
  NoSun,                                  !- Sun Exposure
  NoWind,                                 !- Wind Exposure
  ,                                       !- View Factor to Ground
  ,                                       !- Number of Vertices
  22.6087, 16.4427, 0,                    !- X,Y,Z Vertex 1 {m}
  22.6087, 0, 0,                          !- X,Y,Z Vertex 2 {m}
  0, 0, 0,                                !- X,Y,Z Vertex 3 {m}
  0, 16.4427, 0;                          !- X,Y,Z Vertex 4 {m}

OS:Construction,
  {de17bcc1-161d-4f48-912f-f5ef087884d5}, !- Handle
  ext-slab,                               !- Name
  ,                                       !- Surface Rendering Name
  {45682920-0603-4ad5-bd94-a808b30dabad}; !- Layer 1

OS:Material,
  {45682920-0603-4ad5-bd94-a808b30dabad}, !- Handle
  HW CONCRETE,                            !- Name
  Rough,                                  !- Roughness
  0.1016,                                 !- Thickness {m}
  1.311,                                  !- Conductivity {W/m-K}
  2240,                                   !- Density {kg/m3}
  836.8,                                  !- Specific Heat {J/kg-K}
  0.9,                                    !- Thermal Absorptance
  0.7,                                    !- Solar Absorptance
  0.7;                                    !- Visible Absorptance

OS:Space,
  {7699e2ab-c83e-4d92-8707-f4dad6f118a4}, !- Handle
  Dining,                                 !- Name
  {c6ea625f-d73f-4cc5-b127-16c1460351c0}, !- Space Type Name
  ,                                       !- Default Construction Set Name
  ,                                       !- Default Schedule Set Name
  0,                                      !- Direction of Relative North {deg}
  0,                                      !- X Origin {m}
  0,                                      !- Y Origin {m}
  0,                                      !- Z Origin {m}
  {0ef26bb5-24d3-41a7-9e5c-31b010c6f9f9}, !- Building Story Name
  {1078e639-db2d-4ba1-a9e0-ee99e2237654}, !- Thermal Zone Name
  Yes,                                    !- Part of Total Floor Area
  {6c100613-79e5-41f4-bd7e-8d12bc40a5fe}; !- Design Specification Outdoor Air Object Name

OS:ThermostatSetpoint:DualSetpoint,
  {060bebc1-6339-43fb-92c2-914cd8b42b64}, !- Handle
  {02746405-9a9b-434d-b917-8842f6724c57}, !- Name
  {68aa6652-41d9-4188-b9c0-3603f6d04003}, !- Heating Setpoint Temperature Schedule Name
  {9ca25ecc-444a-4837-ae25-17004a3ba3ee}; !- Cooling Setpoint Temperature Schedule Name

OS:Schedule:Compact,
  {68aa6652-41d9-4188-b9c0-3603f6d04003}, !- Handle
  HTGSETP_SCH,                            !- Name
  {a2a647ac-083a-4cca-b7c0-48f8f4c1dbd0}, !- Schedule Type Limits Name
  Through: 12/31,                         !- Field 1
  For: SummerDesignDay,                   !- Field 2
  Until: 24:00,                           !- Field 3
  15.6,                                   !- Field 4
  For: WinterDesignDay,                   !- Field 5
  Until: 24:00,                           !- Field 6
  21,                                     !- Field 7
  For: AllOtherDays,                      !- Field 8
  Until: 01:00,                           !- Field 9
  21,                                     !- Field 10
  Until: 05:00,                           !- Field 11
  15.6,                                   !- Field 12
  Until: 24:00,                           !- Field 13
  21;                                     !- Field 14

OS:Schedule:Compact,
  {9ca25ecc-444a-4837-ae25-17004a3ba3ee}, !- Handle
  CLGSETP_SCH,                            !- Name
  {a2a647ac-083a-4cca-b7c0-48f8f4c1dbd0}, !- Schedule Type Limits Name
  Through: 12/31,                         !- Field 1
  For: WinterDesignDay,                   !- Field 2
  Until: 24:00,                           !- Field 3
  30,                                     !- Field 4
  For: AllOtherDays,                      !- Field 5
  Until: 01:00,                           !- Field 6
  24,                                     !- Field 7
  Until: 05:00,                           !- Field 8
  30,                                     !- Field 9
  Until: 24:00,                           !- Field 10
  24;                                     !- Field 11

OS:People:Definition,
  {ac040de7-0e7a-43c9-a099-d0e8298ac954}, !- Handle
  Kitchen People Definition,              !- Name
  People,                                 !- Number of People Calculation Method
  7.5,                                    !- Number of People {people}
  ,                                       !- People per Space Floor Area {person/m2}
  ,                                       !- Space Floor Area per Person {m2/person}
  0.3,                                    !- Fraction Radiant
  ,                                       !- Sensible Heat Fraction
  ,                                       !- Carbon Dioxide Generation Rate {m3/s-W}
  No,                                     !- Enable ASHRAE 55 Comfort Warnings
  ZoneAveraged;                           !- Mean Radiant Temperature Calculation Type

OS:People,
  {1cc03800-be9f-425b-9194-0e6834db7082}, !- Handle
  Kitchen People,                         !- Name
  {ac040de7-0e7a-43c9-a099-d0e8298ac954}, !- People Definition Name
  {a4aef089-f5f0-44e8-888f-46122f105e30}, !- Space or SpaceType Name
  {aebe07b3-f2db-4f64-a6dc-2c512d33b7ce}, !- Number of People Schedule Name
  {680978c8-f572-4114-aac9-762d8867f4bb}, !- Activity Level Schedule Name
  ,                                       !- Surface Name/Angle Factor List Name
  {0c3e4e19-d77d-4fdc-bafc-3b6a78eb79a5}; !- Work Efficiency Schedule Name

OS:Schedule:Compact,
  {aebe07b3-f2db-4f64-a6dc-2c512d33b7ce}, !- Handle
  BLDG_OCC_SCH,                           !- Name
  {5f6e25f9-f95b-4c3e-a513-1cf578e1cb90}, !- Schedule Type Limits Name
  Through: 12/31,                         !- Field 1
  For: Weekdays,                          !- Field 2
  Until: 01:00,                           !- Field 3
  0.05,                                   !- Field 4
  Until: 05:00,                           !- Field 5
  0.0,                                    !- Field 6
  Until: 06:00,                           !- Field 7
  0.05,                                   !- Field 8
  Until: 07:00,                           !- Field 9
  0.1,                                    !- Field 10
  Until: 10:00,                           !- Field 11
  0.4,                                    !- Field 12
  Until: 11:00,                           !- Field 13
  0.2,                                    !- Field 14
  Until: 12:00,                           !- Field 15
  0.5,                                    !- Field 16
  Until: 13:00,                           !- Field 17
  0.8,                                    !- Field 18
  Until: 14:00,                           !- Field 19
  0.7,                                    !- Field 20
  Until: 15:00,                           !- Field 21
  0.4,                                    !- Field 22
  Until: 16:00,                           !- Field 23
  0.2,                                    !- Field 24
  Until: 17:00,                           !- Field 25
  0.25,                                   !- Field 26
  Until: 18:00,                           !- Field 27
  0.5,                                    !- Field 28
  Until: 21:00,                           !- Field 29
  0.8,                                    !- Field 30
  Until: 22:00,                           !- Field 31
  0.5,                                    !- Field 32
  Until: 23:00,                           !- Field 33
  0.35,                                   !- Field 34
  Until: 24:00,                           !- Field 35
  0.2,                                    !- Field 36
  For: SummerDesignDay,                   !- Field 37
  Until: 24:00,                           !- Field 38
  1.0,                                    !- Field 39
  For: WinterDesignDay,                   !- Field 40
  Until: 24:00,                           !- Field 41
  0.0,                                    !- Field 42
  For: Saturday,                          !- Field 43
  Until: 01:00,                           !- Field 44
  0.05,                                   !- Field 45
  Until: 06:00,                           !- Field 46
  0.0,                                    !- Field 47
  Until: 07:00,                           !- Field 48
  0.05,                                   !- Field 49
  Until: 09:00,                           !- Field 50
  0.5,                                    !- Field 51
  Until: 10:00,                           !- Field 52
  0.4,                                    !- Field 53
  Until: 11:00,                           !- Field 54
  0.2,                                    !- Field 55
  Until: 12:00,                           !- Field 56
  0.45,                                   !- Field 57