
OS:Version,
  {203dd0f9-12ce-4903-ab61-eae5a5b80b63}, !- Handle
  1.8.5;                                  !- Version Identifier

OS:Site,
  {a5c0c506-2500-4f22-bc92-4b59e0222443}, !- Handle
  USA IL-CHICAGO-OHARE,                   !- Name
  41.77,                                  !- Latitude {deg}
  -87.75,                                 !- Longitude {deg}
  -6,                                     !- Time Zone {hr}
  190,                                    !- Elevation {m}
  City;                                   !- Terrain

OS:SimulationControl,
  {de55dd83-18b6-4cf3-bdec-cb7588d643e4}, !- Handle
  Yes,                                    !- Do Zone Sizing Calculation
  Yes,                                    !- Do System Sizing Calculation
  Yes,                                    !- Do Plant Sizing Calculation
  No,                                     !- Run Simulation for Sizing Periods
  Yes,                                    !- Run Simulation for Weather File Run Periods
  0.04,                                   !- Loads Convergence Tolerance Value
  0.2,                                    !- Temperature Convergence Tolerance Value {deltaC}
  FullInteriorAndExterior,                !- Solar Distribution
  25,                                     !- Maximum Number of Warmup Days
  6;                                      !- Minimum Number of Warmup Days

OS:Construction,
  {97de8a22-368b-490b-907e-5c0400158dee}, !- Handle
  Attic Non-res Floor,                    !- Name
  ,                                       !- Surface Rendering Name
  {2f558404-d183-4253-9ec3-8e86566f4719}, !- Layer 1
  {2b04e871-6795-4bc8-812a-0427e843c9a8}, !- Layer 2
  {2f558404-d183-4253-9ec3-8e86566f4719}; !- Layer 3

OS:Material,
  {2f558404-d183-4253-9ec3-8e86566f4719}, !- Handle
  1/2IN Gypsum,                           !- Name
  Smooth,                                 !- Roughness
  0.0127,                                 !- Thickness {m}
  0.16,                                   !- Conductivity {W/m-K}
  784.9,                                  !- Density {kg/m3}
  830,                                    !- Specific Heat {J/kg-K}
  0.9,                                    !- Thermal Absorptance
  0.92,                                   !- Solar Absorptance
  0.92;                                   !- Visible Absorptance

OS:Material,
  {2b04e871-6795-4bc8-812a-0427e843c9a8}, !- Handle
  AtticFloor NonRes Insulation,           !- Name
  MediumRough,                            !- Roughness
  0.236804989096202,                      !- Thickness {m}
  0.049,                                  !- Conductivity {W/m-K}
  265,                                    !- Density {kg/m3}
  836.8,                                  !- Specific Heat {J/kg-K}
  0.9,                                    !- Thermal Absorptance
  0.7,                                    !- Solar Absorptance
  0.7;                                    !- Visible Absorptance

OS:Schedule:Compact,
  {73a248ce-f9ef-4fee-8116-2b494d1fa8da}, !- Handle
  Kitchen_Exhaust_SCH,                    !- Name
  {0a904c62-97f0-447f-bc73-673563894b35}, !- Schedule Type Limits Name
  Through: 12/31,                         !- Field 1
  For: AllDays,                           !- Field 2
  Until: 01:00,                           !- Field 3
  1.0,                                    !- Field 4
  Until: 05:00,                           !- Field 5
  0.0,                                    !- Field 6
  Until: 24:00,                           !- Field 7
  1.0;                                    !- Field 8

OS:ScheduleTypeLimits,
  {0a904c62-97f0-447f-bc73-673563894b35}, !- Handle
  On/Off,                                 !- Name
  0,                                      !- Lower Limit Value {BasedOnField A4}
  1,                                      !- Upper Limit Value {BasedOnField A4}
  DISCRETE,                               !- Numeric Type
  Availability;                           !- Unit Type

OS:Material,
  {7f58b177-fa8c-47d5-a6e7-224db3bafc56}, !- Handle
  8IN CONCRETE HW,                        !- Name
  Rough,                                  !- Roughness
  0.2032,                                 !- Thickness {m}
  1.311,                                  !- Conductivity {W/m-K}
  2240,                                   !- Density {kg/m3}
  836.8,                                  !- Specific Heat {J/kg-K}
  0.9,                                    !- Thermal Absorptance
  0.7,                                    !- Solar Absorptance
  0.7;                                    !- Visible Absorptance

OS:Meter,
  {53b2704c-ad79-428a-ae15-132adc28bed3}, !- Handle
  Cooling:Electricity,                    !- Name
  hourly,                                 !- Reporting Frequency
  False,                                  !- Meter File Only
  False;                                  !- Cumulative

OS:Schedule:Compact,
  {da223314-ce27-45bd-9054-30f9c36e1d19}, !- Handle
  BLDG_EQUIP_SCH,                         !- Name
  {6e167b86-6f0f-4bf0-bb22-0383a0bff3a4}, !- Schedule Type Limits Name
  Through: 12/31,                         !- Field 1
  For: Weekday,                           !- Field 2
  Until: 06:00,                           !- Field 3
  0.10,                                   !- Field 4
  Until: 07:00,                           !- Field 5
  0.25,                                   !- Field 6
  Until: 09:00,                           !- Field 7
  0.35,                                   !- Field 8
  Until: 10:00,                           !- Field 9
  0.25,                                   !- Field 10
  Until: 13:00,                           !- Field 11
  0.35,                                   !- Field 12
  Until: 16:00,                           !- Field 13
  0.25,                                   !- Field 14
  Until: 19:00,                           !- Field 15
  0.35,                                   !- Field 16
  Until: 24:00,                           !- Field 17
  0.25,                                   !- Field 18
  For: Saturday,                          !- Field 19
  Until: 06:00,                           !- Field 20
  0.10,                                   !- Field 21
  Until: 07:00,                           !- Field 22
  0.25,                                   !- Field 23
  Until: 09:00,                           !- Field 24
  0.35,                                   !- Field 25
  Until: 10:00,                           !- Field 26
  0.25,                                   !- Field 27
  Until: 13:00,                           !- Field 28
  0.35,                                   !- Field 29
  Until: 16:00,                           !- Field 30
  0.25,                                   !- Field 31
  Until: 19:00,                           !- Field 32
  0.35,                                   !- Field 33
  Until: 24:00,                           !- Field 34
  0.25,                                   !- Field 35
  For: SummerDesignDay,                   !- Field 36
  Until: 24:00,                           !- Field 37
  0.35,                                   !- Field 38
  For: WinterDesignDay,                   !- Field 39
  Until: 24:00,                           !- Field 40
  0.0,                                    !- Field 41
  For: Sunday Holidays AllOtherDays,      !- Field 42
  Until: 06:00,                           !- Field 43
  0.10,                                   !- Field 44
  Until: 07:00,                           !- Field 45
  0.25,                                   !- Field 46
  Until: 09:00,                           !- Field 47
  0.35,                                   !- Field 48
  Until: 10:00,                           !- Field 49
  0.25,                                   !- Field 50
  Until: 13:00,                           !- Field 51
  0.35,                                   !- Field 52
  Until: 16:00,                           !- Field 53
  0.25,                                   !- Field 54
  Until: 19:00,                           !- Field 55
  0.35,                                   !- Field 56
  Until: 24:00,                           !- Field 57
  0.25;                                   !- Field 58

OS:ScheduleTypeLimits,
  {6e167b86-6f0f-4bf0-bb22-0383a0bff3a4}, !- Handle
  Fraction,                               !- Name
  0,                                      !- Lower Limit Value {BasedOnField A4}
  1,                                      !- Upper Limit Value {BasedOnField A4}
  CONTINUOUS;                             !- Numeric Type

OS:ElectricEquipment:Definition,
  {a1569fdc-af45-4e86-8115-e8cd4eb81221}, !- Handle
  Kitchen_ExhFan_Equip Definition,        !- Name
  EquipmentLevel,                         !- Design Level Calculation Method
  699,                                    !- Design Level {W}
  ,                                       !- Watts per Space Floor Area {W/m2}
  ,                                       !- Watts per Person {W/person}
  0,                                      !- Fraction Latent
  0,                                      !- Fraction Radiant
  1;                                      !- Fraction Lost

OS:ElectricEquipment,
  {2a8340e7-4aaf-4baa-9670-4e79e2da3789}, !- Handle
  Kitchen_ExhFan_Equip,                   !- Name
  {a1569fdc-af45-4e86-8115-e8cd4eb81221}, !- Electric Equipment Definition Name
  {aa51eaa6-95f1-4c2a-ae7b-5432d6e62497}, !- Space or SpaceType Name
  {73a248ce-f9ef-4fee-8116-2b494d1fa8da}, !- Schedule Name
  ,                                       !- Multiplier
  KitchenExhFan;                          !- End-Use Subcategory

OS:Space,
  {aa51eaa6-95f1-4c2a-ae7b-5432d6e62497}, !- Handle
  Kitchen,                                !- Name
  {bea5e58e-e750-40ac-9f39-2f5e21bdb391}, !- Space Type Name
  ,                                       !- Default Construction Set Name
  ,                                       !- Default Schedule Set Name
  0,                                      !- Direction of Relative North {deg}
  0,                                      !- X Origin {m}
  0,                                      !- Y Origin {m}
  0,                                      !- Z Origin {m}
  {11bbcdb7-e78d-4e42-b086-24fa036ffaa5}, !- Building Story Name
  {acb77de1-aa5e-4989-97e7-1a56a5bdabd7}, !- Thermal Zone Name
  Yes,                                    !- Part of Total Floor Area
  {0a128053-be13-49fd-b562-fc214c970c27}; !- Design Specification Outdoor Air Object Name

OS:ThermostatSetpoint:DualSetpoint,
  {99d9e3d0-721f-420e-8b7e-fe5fdc7e9cc0}, !- Handle
  {4a792c94-4ce6-4db7-868a-44574191b59f}, !- Name
  {7b3b1fd2-5193-4f4b-9b62-b5ef1a8aa4c2}, !- Heating Setpoint Temperature Schedule Name
  {e3cb4066-573d-452c-942e-37e7c26b2bd1}; !- Cooling Setpoint Temperature Schedule Name

OS:Schedule:Compact,
  {7b3b1fd2-5193-4f4b-9b62-b5ef1a8aa4c2}, !- Handle
  HTGSETP_KITCHEN_SCH,                    !- Name
  {a2d86e77-e683-4858-a895-e8b15c5de073}, !- Schedule Type Limits Name
  Through: 12/31,                         !- Field 1
  For: SummerDesignDay,                   !- Field 2
  Until: 24:00,                           !- Field 3
  15.6,                                   !- Field 4
  For: WinterDesignDay,                   !- Field 5
  Until: 24:00,                           !- Field 6
  19,                                     !- Field 7
  For: AllOtherDays,                      !- Field 8
  Until: 01:00,                           !- Field 9
  19,                                     !- Field 10
  Until: 05:00,                           !- Field 11
  15.6,                                   !- Field 12
  Until: 24:00,                           !- Field 13
  19;                                     !- Field 14

OS:ScheduleTypeLimits,
  {a2d86e77-e683-4858-a895-e8b15c5de073}, !- Handle
  Temperature,                            !- Name
  -60,                                    !- Lower Limit Value {BasedOnField A4}
  200,                                    !- Upper Limit Value {BasedOnField A4}
  CONTINUOUS,                             !- Numeric Type
  Temperature;                            !- Unit Type

OS:Schedule:Compact,
  {e3cb4066-573d-452c-942e-37e7c26b2bd1}, !- Handle
  CLGSETP_KITCHEN_SCH,                    !- Name
  {a2d86e77-e683-4858-a895-e8b15c5de073}, !- Schedule Type Limits Name
  Through: 12/31,                         !- Field 1
  For: WinterDesignDay,                   !- Field 2
  Until: 24:00,                           !- Field 3
  30,                                     !- Field 4
  For: AllOtherDays,                      !- Field 5
  Until: 01:00,                           !- Field 6
  26,                                     !- Field 7
  Until: 05:00,                           !- Field 8
  30,                                     !- Field 9
  Until: 24:00,                           !- Field 10
  26;                                     !- Field 11

OS:SpaceInfiltration:DesignFlowRate,
  {533feed1-1637-43d7-ac70-594f9397d24e}, !- Handle
  Dining_Infiltration,                    !- Name
  {13458645-6fdb-4aa6-a4cb-30fdf09a7530}, !- Space or SpaceType Name
  {53a69bfc-8bab-4211-a536-91dfc22fc899}, !- Schedule Name
  Flow/ExteriorArea,                      !- Design Flow Rate Calculation Method
  ,                                       !- Design Flow Rate {m3/s}
  ,                                       !- Flow per Space Floor Area {m3/s-m2}
  0.000302,                               !- Flow per Exterior Surface Area {m3/s-m2}
  ,                                       !- Air Changes per Hour {1/hr}
  1,                                      !- Constant Term Coefficient
  0,                                      !- Temperature Term Coefficient
  0,                                      !- Velocity Term Coefficient
  0;                                      !- Velocity Squared Term Coefficient

OS:Space,
  {13458645-6fdb-4aa6-a4cb-30fdf09a7530}, !- Handle
  Dining,                                 !- Name
  {cc387731-e92a-499b-b008-0b1826e3c17a}, !- Space Type Name
  ,                                       !- Default Construction Set Name
  ,                                       !- Default Schedule Set Name
  0,                                      !- Direction of Relative North {deg}
  0,                                      !- X Origin {m}
  0,                                      !- Y Origin {m}
  0,                                      !- Z Origin {m}
  {11bbcdb7-e78d-4e42-b086-24fa036ffaa5}, !- Building Story Name
  {11c5003a-da72-4a36-8683-bffff0068958}, !- Thermal Zone Name
  Yes,                                    !- Part of Total Floor Area
  {39b0f3f5-e498-4237-a9b8-172c41ab159b}; !- Design Specification Outdoor Air Object Name

OS:ThermostatSetpoint:DualSetpoint,
  {1aed1f0f-a2eb-45e5-9c38-a9b8ae35b8a4}, !- Handle
  {499df19e-74b0-45d5-a9c2-49b4a55fb59b}, !- Name
  {c749f22b-3090-45da-aa11-ee705b17f662}, !- Heating Setpoint Temperature Schedule Name
  {c9f64528-bbae-4d30-a65b-4df78cb7b79d}; !- Cooling Setpoint Temperature Schedule Name

OS:Schedule:Compact,
  {c749f22b-3090-45da-aa11-ee705b17f662}, !- Handle
  HTGSETP_SCH,                            !- Name
  {a2d86e77-e683-4858-a895-e8b15c5de073}, !- Schedule Type Limits Name
  Through: 12/31,                         !- Field 1
  For: SummerDesignDay,                   !- Field 2
  Until: 24:00,                           !- Field 3
  15.6,                                   !- Field 4
  For: WinterDesignDay,                   !- Field 5
  Until: 24:00,                           !- Field 6
  21,                                     !- Field 7
  For: AllOtherDays,                      !- Field 8
  Until: 01:00,                           !- Field 9
  21,                                     !- Field 10
  Until: 05:00,                           !- Field 11
  15.6,                                   !- Field 12
  Until: 24:00,                           !- Field 13
  21;                                     !- Field 14

OS:Schedule:Compact,
  {c9f64528-bbae-4d30-a65b-4df78cb7b79d}, !- Handle
  CLGSETP_SCH,                            !- Name
  {a2d86e77-e683-4858-a895-e8b15c5de073}, !- Schedule Type Limits Name
  Through: 12/31,                         !- Field 1
  For: WinterDesignDay,                   !- Field 2
  Until: 24:00,                           !- Field 3
  30,                                     !- Field 4
  For: AllOtherDays,                      !- Field 5
  Until: 01:00,                           !- Field 6
  24,                                     !- Field 7
  Until: 05:00,                           !- Field 8
  30,                                     !- Field 9
  Until: 24:00,                           !- Field 10
  24;                                     !- Field 11

OS:Schedule:Compact,
  {53a69bfc-8bab-4211-a536-91dfc22fc899}, !- Handle
  INFIL_HALF_ON_SCH,                      !- Name
  {6e167b86-6f0f-4bf0-bb22-0383a0bff3a4}, !- Schedule Type Limits Name
  Through: 12/31,                         !- Field 1
  For: Weekdays SummerDesignDay,          !- Field 2
  Until: 05:00,                           !- Field 3
  1.0,                                    !- Field 4
  Until: 24:00,                           !- Field 5
  0.5,                                    !- Field 6
  For: Saturday WinterDesignDay,          !- Field 7
  Until: 05:00,                           !- Field 8
  1.0,                                    !- Field 9
  Until: 24:00,                           !- Field 10
  0.5,                                    !- Field 11
  For: Sunday Holidays AllOtherDays,      !- Field 12
  Until: 05:00,                           !- Field 13
  1.0,                                    !- Field 14
  Until: 24:00,                           !- Field 15
  0.5;                                    !- Field 16

OS:Surface,
  {d3006d95-d778-4c1c-9ec1-04a02e6228c7}, !- Handle
  Dining_Wall_South,                      !- Name
  Wall,                                   !- Surface Type
  {9f163e42-ad65-49d4-9688-9a877c82fc2f}, !- Construction Name
  {13458645-6fdb-4aa6-a4cb-30fdf09a7530}, !- Space Name
  Outdoors,                               !- Outside Boundary Condition
  ,                                       !- Outside Boundary Condition Object
  SunExposed,                             !- Sun Exposure
  WindExposed,                            !- Wind Exposure
  ,                                       !- View Factor to Ground
  ,                                       !- Number of Vertices
  0, 0, 3.0488,                           !- X,Y,Z Vertex 1 {m}
  0, 0, 0,                                !- X,Y,Z Vertex 2 {m}
  22.6087, 0, 0,                          !- X,Y,Z Vertex 3 {m}
  22.6087, 0, 3.0488;                     !- X,Y,Z Vertex 4 {m}

OS:Construction,
  {9f163e42-ad65-49d4-9688-9a877c82fc2f}, !- Handle
  Steel Frame Non-res Ext Wall,           !- Name
  ,                                       !- Surface Rendering Name
  {1d3fd117-a65d-4a9b-80ae-8a124034ea61}, !- Layer 1
  {40806c87-5ec8-417d-9f93-6bc913cb6a51}, !- Layer 2
  {2f558404-d183-4253-9ec3-8e86566f4719}; !- Layer 3

OS:Material,
  {1d3fd117-a65d-4a9b-80ae-8a124034ea61}, !- Handle
  Wood Siding,                            !- Name
  MediumSmooth,                           !- Roughness
  0.01,                                   !- Thickness {m}
  0.11,                                   !- Conductivity {W/m-K}
  544.62,                                 !- Density {kg/m3}
  1210,                                   !- Specific Heat {J/kg-K}
  0.9,                                    !- Thermal Absorptance
  0.78,                                   !- Solar Absorptance
  0.78;                                   !- Visible Absorptance

OS:Material,
  {40806c87-5ec8-417d-9f93-6bc913cb6a51}, !- Handle
  Steel Frame NonRes Wall Insulation,     !- Name
  MediumRough,                            !- Roughness
  0.0870564552646045,                     !- Thickness {m}
  0.049,                                  !- Conductivity {W/m-K}
  265,                                    !- Density {kg/m3}
  836.8,                                  !- Specific Heat {J/kg-K}
  0.9,                                    !- Thermal Absorptance
  0.7,                                    !- Solar Absorptance
  0.7;                                    !- Visible Absorptance

OS:Surface,
  {c4162855-ebbc-4458-80ec-902c8bec5022}, !- Handle
  Dining_Wall_West,                       !- Name
  Wall,                                   !- Surface Type
  {9f163e42-ad65-49d4-9688-9a877c82fc2f}, !- Construction Name
  {13458645-6fdb-4aa6-a4cb-30fdf09a7530}, !- Space Name
  Outdoors,                               !- Outside Boundary Condition
  ,                                       !- Outside Boundary Condition Object
  SunExposed,                             !- Sun Exposure
  WindExposed,                            !- Wind Exposure
  ,                                       !- View Factor to Ground
  ,                                       !- Number of Vertices
  0, 16.4427, 3.0488,                     !- X,Y,Z Vertex 1 {m}
  0, 16.4427, 0,                          !- X,Y,Z Vertex 2 {m}
  0, 0, 0,                                !- X,Y,Z Vertex 3 {m}
  0, 0, 3.0488;                           !- X,Y,Z Vertex 4 {m}

OS:Material,
  {8a29dd85-821a-4035-9d3d-dbaa6c1e89d7}, !- Handle
  Metal Roofing,                          !- Name
  MediumSmooth,                           !- Roughness
  0.0015,                                 !- Thickness {m}
  45.006,                                 !- Conductivity {W/m-K}
  7680,                                   !- Density {kg/m3}
  418.4,                                  !- Specific Heat {J/kg-K}
  0.9,                                    !- Thermal Absorptance
  0.7,                                    !- Solar Absorptance
  0.3;                                    !- Visible Absorptance

OS:Curve:Biquadratic,
  {6f35f566-589e-47f6-a248-a78263c11d50}, !- Handle
  Measured_CoolCStandard10Ton_CapFT,      !- Name
  0.52357,                                !- Coefficient1 Constant
  0.03478,                                !- Coefficient2 x
  0,                                      !- Coefficient3 x**2
  -0.001915,                              !- Coefficient4 y
  -0.00010838,                            !- Coefficient5 y**2
  0,                                      !- Coefficient6 x*y
  11.1,                                   !- Minimum Value of x {BasedOnField A2}
  29.4,                                   !- Maximum Value of x {BasedOnField A2}
  10,                                     !- Minimum Value of y {BasedOnField A3}
  50.3;                                   !- Maximum Value of y {BasedOnField A3}

OS:Curve:Cubic,
  {d916b3b2-8365-4817-8221-5d9bce4b3d6d}, !- Handle
  Kitchen_Case:2_SELFCONTAINEDDISPLAYCASEMultiShelfVertical_LatentEnergyMult, !- Name
  0.026526281,                            !- Coefficient1 Constant
  0.001078032,                            !- Coefficient2 x
  -6.02558e-005,                          !- Coefficient3 x**2
  1.23732e-006,                           !- Coefficient4 x**3
  -35,                                    !- Minimum Value of x {BasedOnField A2}
  20;                                     !- Maximum Value of x {BasedOnField A2}

OS:Construction,
  {9ee2f311-a22f-4285-8688-c50f549617fe}, !- Handle
  ext-slab,                               !- Name
  ,                                       !- Surface Rendering Name
  {21e2fa44-223f-4e8d-b9e2-ef8b97f6420d}; !- Layer 1

OS:Material,
  {21e2fa44-223f-4e8d-b9e2-ef8b97f6420d}, !- Handle
  HW CONCRETE,                            !- Name
  Rough,                                  !- Roughness
  0.1016,                                 !- Thickness {m}
  1.311,                                  !- Conductivity {W/m-K}
  2240,                                   !- Density {kg/m3}
  836.8,                                  !- Specific Heat {J/kg-K}
  0.9,                                    !- Thermal Absorptance
  0.7,                                    !- Solar Absorptance
  0.7;                                    !- Visible Absorptance

OS:GasEquipment:Definition,
  {606aaf9b-e57b-488a-a778-07793e1e6397}, !- Handle
  Kitchen_MiscGas_Equip Definition,       !- Name
  EquipmentLevel,                         !- Design Level Calculation Method
  166994,                                 !- Design Level {W}
  ,                                       !- Watts per Space Floor Area {W/m2}
  ,                                       !- Watts per Person {W/Person}
  0.1,                                    !- Fraction Latent
  0.2,                                    !- Fraction Radiant
  0.7;                                    !- Fraction Lost

OS:GasEquipment,
  {6f892929-6444-435a-9b5e-2f8f511f6801}, !- Handle
  Kitchen_MiscGas_Equip,                  !- Name
  {606aaf9b-e57b-488a-a778-07793e1e6397}, !- Gas Equipment Definition Name
  {aa51eaa6-95f1-4c2a-ae7b-5432d6e62497}, !- Space or SpaceType Name
  {becd2d4c-ae14-410c-8060-c0757b80fb10}, !- Schedule Name
  ,                                       !- Multiplier
  MiscGas;                                !- End-Use Subcategory

OS:Schedule:Compact,
  {becd2d4c-ae14-410c-8060-c0757b80fb10}, !- Handle
  GAS_EQUIP_SCH,                          !- Name
  {6e167b86-6f0f-4bf0-bb22-0383a0bff3a4}, !- Schedule Type Limits Name
  Through: 12/31,                         !- Field 1
  For: Weekdays Saturday,                 !- Field 2
  Until: 05:00,                           !- Field 3
  0.02,                                   !- Field 4
  Until: 06:00,                           !- Field 5
  0.05,                                   !- Field 6
  Until: 07:00,                           !- Field 7
  0.1,                                    !- Field 8
  Until: 08:00,                           !- Field 9
  0.15,                                   !- Field 10
  Until: 09:00,                           !- Field 11
  0.2,                                    !- Field 12
  Until: 10:00,                           !- Field 13
  0.15,                                   !- Field 14
  Until: 13:00,                           !- Field 15
  0.25,                                   !- Field 16
  Until: 14:00,                           !- Field 17
  0.2,                                    !- Field 18
  Until: 15:00,                           !- Field 19
  0.15,                                   !- Field 20
  Until: 16:00,                           !- Field 21
  0.2,                                    !- Field 22
  Until: 19:00,                           !- Field 23
  0.3,                                    !- Field 24
  Until: 21:00,                           !- Field 25
  0.20,                                   !- Field 26
  Until: 22:00,                           !- Field 27
  0.15,                                   !- Field 28
  Until: 23:00,                           !- Field 29
  0.10,                                   !- Field 30
  Until: 24:00,                           !- Field 31
  0.05,                                   !- Field 32
  For: SummerDesignDay,                   !- Field 33
  Until: 24:00,                           !- Field 34
  0.25,                                   !- Field 35
  For: WinterDesignDay,                   !- Field 36
  Until: 24:00,                           !- Field 37
  0.0,                                    !- Field 38
  For: Sunday Holidays AllOtherDays,      !- Field 39
  Until: 05:00,                           !- Field 40
  0.02,                                   !- Field 41
  Until: 06:00,                           !- Field 42
  0.05,                                   !- Field 43
  Until: 07:00,                           !- Field 44
  0.1,                                    !- Field 45
  Until: 08:00,                           !- Field 46
  0.15,                                   !- Field 47
  Until: 09:00,                           !- Field 48
  0.2,                                    !- Field 49
  Until: 10:00,                           !- Field 50
  0.15,                                   !- Field 51
  Until: 13:00,                           !- Field 52
  0.25,                                   !- Field 53
  Until: 14:00,                           !- Field 54
  0.2,                                    !- Field 55
  Until: 15:00,                           !- Field 56
  0.15,                                   !- Field 57
  Until: 16:00,                           !- Field 58
  0.2,                                    !- Field 59
  Until: 19:00,                           !- Field 60
  0.3,                                    !- Field 61
  Until: 21:00,                           !- Field 62
  0.20,                                   !- Field 63
  Until: 22:00,                           !- Field 64
  0.15,                                   !- Field 65
  Until: 23:00,                           !- Field 66
  0.10,                                   !- Field 67
  Until: 24:00,                           !- Field 68
  0.05;                                   !- Field 69

OS:Curve:Quadratic,
  {483f73b2-d4be-4562-9abc-2c22df3ccf07}, !- Handle
  Measured_CoolCStandard10Ton_CapFF,      !- Name
  0.7685,                                 !- Coefficient1 Constant
  0.2315,                                 !- Coefficient2 x
  0,                                      !- Coefficient3 x**2
  0.776,                                  !- Minimum Value of x {BasedOnField A2}
  1.197;                                  !- Maximum Value of x {BasedOnField A2}

OS:Construction,
  {de0c43cf-261f-47fa-a917-f1b748daf6f9}, !- Handle
  InteriorFurnishings,                    !- Name
  ,                                       !- Surface Rendering Name
  {8fb6f37a-ac00-4d99-ad02-cade2937a511}; !- Layer 1

OS:Material,
  {8fb6f37a-ac00-4d99-ad02-cade2937a511}, !- Handle
  Std Wood 6inch,                         !- Name