
OS:Version,
  {d5fd6c72-fc06-4f43-b2d5-8e4d1895d95f}, !- Handle
  1.8.0;                                  !- Version Identifier

OS:Site,
  {95b13f7e-8889-41aa-b77b-47f4ac6f6091}, !- Handle
  USA IL-CHICAGO-OHARE,                   !- Name
  41.77,                                  !- Latitude {deg}
  -87.75,                                 !- Longitude {deg}
  -6,                                     !- Time Zone {hr}
  190,                                    !- Elevation {m}
  City;                                   !- Terrain

OS:SimulationControl,
  {7598d9df-64dd-4e2c-ba7f-41a710594780}, !- Handle
  Yes,                                    !- Do Zone Sizing Calculation
  Yes,                                    !- Do System Sizing Calculation
  Yes,                                    !- Do Plant Sizing Calculation
  No,                                     !- Run Simulation for Sizing Periods
  Yes,                                    !- Run Simulation for Weather File Run Periods
  0.04,                                   !- Loads Convergence Tolerance Value
  0.2,                                    !- Temperature Convergence Tolerance Value {deltaC}
  FullInteriorAndExterior,                !- Solar Distribution
  25,                                     !- Maximum Number of Warmup Days
  6;                                      !- Minimum Number of Warmup Days

OS:Surface,
  {afa54d75-0716-42dd-986a-49782aa61741}, !- Handle
  Basement_Ceiling_3,                     !- Name
  RoofCeiling,                            !- Surface Type
  {fd26043d-7549-413e-9e38-7c732820ffcd}, !- Construction Name
  {2a3462ee-75e2-4eba-a8af-d25224fe68d0}, !- Space Name
  Surface,                                !- Outside Boundary Condition
  {3f51175a-dc11-4f59-89d0-482e2e8656fb}, !- Outside Boundary Condition Object
  NoSun,                                  !- Sun Exposure
  NoWind,                                 !- Wind Exposure
  ,                                       !- View Factor to Ground
  ,                                       !- Number of Vertices
  68.534, 44.165, 0,                      !- X,Y,Z Vertex 1 {m}
  73.1072, 48.7381, 0,                    !- X,Y,Z Vertex 2 {m}
  0, 48.7381, 0,                          !- X,Y,Z Vertex 3 {m}
  4.5732, 44.165, 0;                      !- X,Y,Z Vertex 4 {m}

OS:Construction,
  {fd26043d-7549-413e-9e38-7c732820ffcd}, !- Handle
  INT-FLOOR-UNDERSIDE,                    !- Name
  ,                                       !- Surface Rendering Name
  {5bae2f6e-cd58-4c59-8609-342ecc165246}, !- Layer 1
  {cb4a553d-2f4f-4c2c-b6bf-0332a92ab846}; !- Layer 2

OS:Material:NoMass,
  {5bae2f6e-cd58-4c59-8609-342ecc165246}, !- Handle
  CP02 CARPET PAD,                        !- Name
  VeryRough,                              !- Roughness
  0.2165,                                 !- Thermal Resistance {m2-K/W}
  0.9,                                    !- Thermal Absorptance
  0.7,                                    !- Solar Absorptance
  0.8;                                    !- Visible Absorptance

OS:Material,
  {cb4a553d-2f4f-4c2c-b6bf-0332a92ab846}, !- Handle
  MAT-CC05 4 HW CONCRETE,                 !- Name
  Rough,                                  !- Roughness
  0.1016,                                 !- Thickness {m}
  1.311,                                  !- Conductivity {W/m-K}
  2240,                                   !- Density {kg/m3}
  836.8,                                  !- Specific Heat {J/kg-K}
  0.9,                                    !- Thermal Absorptance
  0.7,                                    !- Solar Absorptance
  0.7;                                    !- Visible Absorptance

OS:Space,
  {2a3462ee-75e2-4eba-a8af-d25224fe68d0}, !- Handle
  Basement,                               !- Name
  {47b76555-b9a4-44ac-a2c5-b20685056949}, !- Space Type Name
  ,                                       !- Default Construction Set Name
  ,                                       !- Default Schedule Set Name
  0,                                      !- Direction of Relative North {deg}
  0,                                      !- X Origin {m}
  0.04,                                   !- Y Origin {m}
  0.2,                                    !- Z Origin {m}
  {b0640c16-ae73-4132-b878-f9c60dae961f}, !- Building Story Name
  {885685e0-7cc8-4535-a25c-28cbc922195e}, !- Thermal Zone Name
  Yes,                                    !- Part of Total Floor Area
  {53aa1c04-662d-4b96-990c-04c2fb1bb55a}; !- Design Specification Outdoor Air Object Name

OS:ThermostatSetpoint:DualSetpoint,
  {ef0461dc-24dd-45e3-a03e-485a8467f89b}, !- Handle
  {6c5e332d-8e4b-421f-b175-7ab36a253f91}, !- Name
  {2d44fc20-36cb-4dbb-b233-4b24f39d5f7c}, !- Heating Setpoint Temperature Schedule Name
  {f9be320c-9b22-4552-99f5-d72397d67b0e}; !- Cooling Setpoint Temperature Schedule Name

OS:Schedule:Compact,
  {2d44fc20-36cb-4dbb-b233-4b24f39d5f7c}, !- Handle
  HTGSETP_SCH,                            !- Name
  {e1716384-47ed-4e62-9fd6-a8f0a7fa5e8e}, !- Schedule Type Limits Name
  Through: 12/31,                         !- Field 1
  For: Weekdays,                          !- Field 2
  Until: 06:00,                           !- Field 3
  15.6,                                   !- Field 4
  Until: 22:00,                           !- Field 5
  21.0,                                   !- Field 6
  Until: 24:00,                           !- Field 7
  15.6,                                   !- Field 8
  For SummerDesignDay,                    !- Field 9
  Until: 24:00,                           !- Field 10
  15.6,                                   !- Field 11
  For: Saturday,                          !- Field 12
  Until: 06:00,                           !- Field 13
  15.6,                                   !- Field 14
  Until: 18:00,                           !- Field 15
  21.0,                                   !- Field 16
  Until: 24:00,                           !- Field 17
  15.6,                                   !- Field 18
  For: WinterDesignDay,                   !- Field 19
  Until: 24:00,                           !- Field 20
  21.0,                                   !- Field 21
  For: AllOtherDays,                      !- Field 22
  Until: 24:00,                           !- Field 23
  15.6;                                   !- Field 24

OS:ScheduleTypeLimits,
  {e1716384-47ed-4e62-9fd6-a8f0a7fa5e8e}, !- Handle
  Temperature,                            !- Name
  -60,                                    !- Lower Limit Value {BasedOnField A4}
  200,                                    !- Upper Limit Value {BasedOnField A4}
  CONTINUOUS,                             !- Numeric Type
  Temperature;                            !- Unit Type

OS:Schedule:Compact,
  {f9be320c-9b22-4552-99f5-d72397d67b0e}, !- Handle
  CLGSETP_SCH,                            !- Name
  {e1716384-47ed-4e62-9fd6-a8f0a7fa5e8e}, !- Schedule Type Limits Name
  Through: 12/31,                         !- Field 1
  For: Weekdays SummerDesignDay,          !- Field 2
  Until: 06:00,                           !- Field 3
  26.7,                                   !- Field 4
  Until: 22:00,                           !- Field 5
  24.0,                                   !- Field 6
  Until: 24:00,                           !- Field 7
  26.7,                                   !- Field 8
  For: Saturday,                          !- Field 9
  Until: 06:00,                           !- Field 10
  26.7,                                   !- Field 11
  Until: 18:00,                           !- Field 12
  24.0,                                   !- Field 13
  Until: 24:00,                           !- Field 14
  26.7,                                   !- Field 15
  For WinterDesignDay,                    !- Field 16
  Until: 24:00,                           !- Field 17
  26.7,                                   !- Field 18
  For: AllOtherDays,                      !- Field 19
  Until: 24:00,                           !- Field 20
  26.7;                                   !- Field 21

OS:DesignSpecification:OutdoorAir,
  {53aa1c04-662d-4b96-990c-04c2fb1bb55a}, !- Handle
  SZ DSOA Basement,                       !- Name
  ,                                       !- Outdoor Air Method
  0.0125,                                 !- Outdoor Air Flow per Person {m3/s-person}
  ,                                       !- Outdoor Air Flow per Floor Area {m3/s-m2}
  ,                                       !- Outdoor Air Flow Rate {m3/s}
  ,                                       !- Outdoor Air Flow Air Changes per Hour {1/hr}
  ;                                       !- Outdoor Air Flow Rate Fraction Schedule Name

OS:SpaceInfiltration:DesignFlowRate,
  {d0884f85-2e0c-47c6-8132-bae71a7ab69d}, !- Handle
  Perimeter_top_ZN_2_Infiltration,        !- Name
  {ca0510de-d1f4-4d23-84b6-f265acfe400a}, !- Space or SpaceType Name
  {73997a25-f905-4fc0-8d42-ba7ff00027b5}, !- Schedule Name
  Flow/ExteriorArea,                      !- Design Flow Rate Calculation Method
  ,                                       !- Design Flow Rate {m3/s}
  ,                                       !- Flow per Space Floor Area {m3/s-m2}
  0.000302,                               !- Flow per Exterior Surface Area {m3/s-m2}
  ,                                       !- Air Changes per Hour {1/hr}
  1,                                      !- Constant Term Coefficient
  0,                                      !- Temperature Term Coefficient
  0,                                      !- Velocity Term Coefficient
  0;                                      !- Velocity Squared Term Coefficient

OS:Space,
  {ca0510de-d1f4-4d23-84b6-f265acfe400a}, !- Handle
  Perimeter_top_ZN_2,                     !- Name
  {901592fa-4538-431b-8f50-d8907cf0b316}, !- Space Type Name
  ,                                       !- Default Construction Set Name
  ,                                       !- Default Schedule Set Name
  0,                                      !- Direction of Relative North {deg}
  0,                                      !- X Origin {m}
  0,                                      !- Y Origin {m}
  0,                                      !- Z Origin {m}
  {b79fe8ee-d985-423e-a5d5-739714fb8f2e}, !- Building Story Name
  {8dd10a82-5152-4c7f-8755-a2d401d76294}, !- Thermal Zone Name
  Yes,                                    !- Part of Total Floor Area
  {6699970c-9489-4914-b28f-de560cbf7c99}; !- Design Specification Outdoor Air Object Name

OS:ThermostatSetpoint:DualSetpoint,
  {25167682-5abf-4317-ab4e-294c6d0c52f3}, !- Handle
  {314e39f3-839c-492d-97d1-7c36482f1e03}, !- Name
  {2d44fc20-36cb-4dbb-b233-4b24f39d5f7c}, !- Heating Setpoint Temperature Schedule Name
  {f9be320c-9b22-4552-99f5-d72397d67b0e}; !- Cooling Setpoint Temperature Schedule Name

OS:Schedule:Compact,
  {73997a25-f905-4fc0-8d42-ba7ff00027b5}, !- Handle
  INFIL_QUARTER_ON_SCH,                   !- Name
  {96fed110-f8f3-4723-83af-cc2d1b5db192}, !- Schedule Type Limits Name
  Through: 12/31,                         !- Field 1
  For: Weekdays SummerDesignDay,          !- Field 2
  Until: 06:00,                           !- Field 3
  1.0,                                    !- Field 4
  Until: 22:00,                           !- Field 5
  0.25,                                   !- Field 6
  Until: 24:00,                           !- Field 7
  1.0,                                    !- Field 8
  For: Saturday WinterDesignDay,          !- Field 9
  Until: 06:00,                           !- Field 10
  1.0,                                    !- Field 11
  Until: 18:00,                           !- Field 12
  0.25,                                   !- Field 13
  Until: 24:00,                           !- Field 14
  1.0,                                    !- Field 15
  For: Sunday Holidays AllOtherDays,      !- Field 16
  Until: 24:00,                           !- Field 17
  1.0;                                    !- Field 18

OS:ScheduleTypeLimits,
  {96fed110-f8f3-4723-83af-cc2d1b5db192}, !- Handle
  Fraction,                               !- Name
  0,                                      !- Lower Limit Value {BasedOnField A4}
  1,                                      !- Upper Limit Value {BasedOnField A4}
  CONTINUOUS;                             !- Numeric Type

OS:Space,
  {00067646-bb77-4b56-a77d-01a049e5c13c}, !- Handle
  Perimeter_bot_ZN_2,                     !- Name
  {901592fa-4538-431b-8f50-d8907cf0b316}, !- Space Type Name
  ,                                       !- Default Construction Set Name
  ,                                       !- Default Schedule Set Name
  0,                                      !- Direction of Relative North {deg}
  0,                                      !- X Origin {m}
  0,                                      !- Y Origin {m}
  0,                                      !- Z Origin {m}
  {b79fe8ee-d985-423e-a5d5-739714fb8f2e}, !- Building Story Name
  {8dd10a82-5152-4c7f-8755-a2d401d76294}, !- Thermal Zone Name
  Yes,                                    !- Part of Total Floor Area
  {fbc38a86-d017-43af-8acf-94f7b352289e}; !- Design Specification Outdoor Air Object Name

OS:ThermostatSetpoint:DualSetpoint,
  {7e6ed3d7-fb11-4543-a45d-93e3ba4457c1}, !- Handle
  {5a99056f-d98b-40bd-bea2-1a3a9468835e}, !- Name
  {2d44fc20-36cb-4dbb-b233-4b24f39d5f7c}, !- Heating Setpoint Temperature Schedule Name
  {f9be320c-9b22-4552-99f5-d72397d67b0e}; !- Cooling Setpoint Temperature Schedule Name

OS:Surface,
  {64bc0548-6f47-4fe6-8750-589abdfdd5b5}, !- Handle
  MidFloor_Plenum_Floor_5,                !- Name
  Floor,                                  !- Surface Type
  {11476b49-88e0-469f-aff0-739dbe79622f}, !- Construction Name
  {83a48486-c236-4317-aa2d-e1452284c70c}, !- Space Name
  Surface,                                !- Outside Boundary Condition
  {bf7e9b18-2ac8-4a80-bfcd-57b4fffa149f}, !- Outside Boundary Condition Object
  NoSun,                                  !- Sun Exposure
  NoWind,                                 !- Wind Exposure
  ,                                       !- View Factor to Ground
  ,                                       !- Number of Vertices
  68.534, 44.165, 22.56,                  !- X,Y,Z Vertex 1 {m}
  68.534, 4.5732, 22.56,                  !- X,Y,Z Vertex 2 {m}
  4.5732, 4.5732, 22.56,                  !- X,Y,Z Vertex 3 {m}
  4.5732, 44.165, 22.56;                  !- X,Y,Z Vertex 4 {m}

OS:Construction,
  {11476b49-88e0-469f-aff0-739dbe79622f}, !- Handle
  DropCeiling,                            !- Name
  ,                                       !- Surface Rendering Name
  {001cea23-00c3-4c4c-b1ac-0f78279e6463}; !- Layer 1

OS:Material,
  {001cea23-00c3-4c4c-b1ac-0f78279e6463}, !- Handle
  Std AC02,                               !- Name
  MediumSmooth,                           !- Roughness
  0.0127,                                 !- Thickness {m}
  0.057,                                  !- Conductivity {W/m-K}
  288,                                    !- Density {kg/m3}
  1339,                                   !- Specific Heat {J/kg-K}
  0.9,                                    !- Thermal Absorptance
  0.7,                                    !- Solar Absorptance
  0.2;                                    !- Visible Absorptance

OS:Space,
  {83a48486-c236-4317-aa2d-e1452284c70c}, !- Handle
  MidFloor_Plenum,                        !- Name
  {901592fa-4538-431b-8f50-d8907cf0b316}, !- Space Type Name
  ,                                       !- Default Construction Set Name
  ,                                       !- Default Schedule Set Name
  0,                                      !- Direction of Relative North {deg}
  0,                                      !- X Origin {m}
  0,                                      !- Y Origin {m}
  0,                                      !- Z Origin {m}
  {b79fe8ee-d985-423e-a5d5-739714fb8f2e}, !- Building Story Name
  {a20c33b5-2051-444a-b843-a2ed4a907a28}, !- Thermal Zone Name
  No;                                     !- Part of Total Floor Area

OS:People:Definition,
  {3fff1be3-d897-49fb-b36c-f34983c01120}, !- Handle
  Core_mid People Definition,             !- Name
  Area/Person,                            !- Number of People Calculation Method
  ,                                       !- Number of People {people}
  ,                                       !- People per Space Floor Area {person/m2}
  18.58,                                  !- Space Floor Area per Person {m2/person}
  0.3,                                    !- Fraction Radiant
  ,                                       !- Sensible Heat Fraction
  ,                                       !- Carbon Dioxide Generation Rate {m3/s-W}
  No,                                     !- Enable ASHRAE 55 Comfort Warnings
  ZoneAveraged;                           !- Mean Radiant Temperature Calculation Type

OS:People,
  {235b3979-4a99-4429-92f3-f7a22685289d}, !- Handle
  Core_mid People,                        !- Name
  {3fff1be3-d897-49fb-b36c-f34983c01120}, !- People Definition Name
  {ce46f7ba-0e25-4b6e-a77e-41f30f83dd10}, !- Space or SpaceType Name
  {1078d1ca-bf4b-42d0-8196-5c38cfd43dbf}, !- Number of People Schedule Name
  {1b433ea1-fe2b-4420-81b6-2224378a821f}, !- Activity Level Schedule Name
  ,                                       !- Surface Name/Angle Factor List Name
  {eb4ffe27-2296-47f6-951a-c81a5e17da59}; !- Work Efficiency Schedule Name

OS:Space,
  {ce46f7ba-0e25-4b6e-a77e-41f30f83dd10}, !- Handle
  Core_mid,                               !- Name
  {901592fa-4538-431b-8f50-d8907cf0b316}, !- Space Type Name
  ,                                       !- Default Construction Set Name
  ,                                       !- Default Schedule Set Name
  0,                                      !- Direction of Relative North {deg}
  0,                                      !- X Origin {m}
  0,                                      !- Y Origin {m}
  0,                                      !- Z Origin {m}
  {b79fe8ee-d985-423e-a5d5-739714fb8f2e}, !- Building Story Name
  {3b729032-d903-4df0-b731-a1b240e5f675}, !- Thermal Zone Name
  Yes,                                    !- Part of Total Floor Area
  {a87f14e3-b14c-44b7-a849-ff8b9739b050}; !- Design Specification Outdoor Air Object Name

OS:ThermostatSetpoint:DualSetpoint,
  {92c78ee7-0454-41dd-ba74-d1c387e75093}, !- Handle
  {d793f60f-e28e-4262-8f3f-343788979477}, !- Name
  {2d44fc20-36cb-4dbb-b233-4b24f39d5f7c}, !- Heating Setpoint Temperature Schedule Name
  {f9be320c-9b22-4552-99f5-d72397d67b0e}; !- Cooling Setpoint Temperature Schedule Name

OS:Schedule:Compact,
  {1078d1ca-bf4b-42d0-8196-5c38cfd43dbf}, !- Handle
  BLDG_OCC_SCH,                           !- Name
  {96fed110-f8f3-4723-83af-cc2d1b5db192}, !- Schedule Type Limits Name
  Through: 12/31,                         !- Field 1
  For: SummerDesignDay,                   !- Field 2
  Until: 06:00,                           !- Field 3
  0.0,                                    !- Field 4
  Until: 22:00,                           !- Field 5
  1.0,                                    !- Field 6
  Until: 24:00,                           !- Field 7
  0.05,                                   !- Field 8
  For: Weekdays,                          !- Field 9
  Until: 06:00,                           !- Field 10
  0.0,                                    !- Field 11
  Until: 07:00,                           !- Field 12
  0.1,                                    !- Field 13
  Until: 08:00,                           !- Field 14
  0.2,                                    !- Field 15
  Until: 12:00,                           !- Field 16
  0.95,                                   !- Field 17
  Until: 13:00,                           !- Field 18
  0.5,                                    !- Field 19
  Until: 17:00,                           !- Field 20
  0.95,                                   !- Field 21
  Until: 18:00,                           !- Field 22
  0.7,                                    !- Field 23
  Until: 20:00,                           !- Field 24
  0.4,                                    !- Field 25
  Until: 22:00,                           !- Field 26
  0.1,                                    !- Field 27
  Until: 24:00,                           !- Field 28
  0.05,                                   !- Field 29
  For: Saturday,                          !- Field 30
  Until: 06:00,                           !- Field 31
  0.0,                                    !- Field 32
  Until: 08:00,                           !- Field 33
  0.1,                                    !- Field 34
  Until: 14:00,                           !- Field 35
  0.5,                                    !- Field 36
  Until: 17:00,                           !- Field 37
  0.1,                                    !- Field 38
  Until: 24:00,                           !- Field 39
  0.0,                                    !- Field 40
  For: AllOtherDays,                      !- Field 41
  Until: 24:00,                           !- Field 42
  0.0;                                    !- Field 43

OS:Schedule:Compact,
  {1b433ea1-fe2b-4420-81b6-2224378a821f}, !- Handle
  ACTIVITY_SCH,                           !- Name
  {a24cb4f4-52da-46f8-ab2b-a5ce6886f85d}, !- Schedule Type Limits Name
  Through: 12/31,                         !- Field 1
  For: AllDays,                           !- Field 2
  Until: 24:00,                           !- Field 3
  120;                                    !- Field 4

OS:ScheduleTypeLimits,
  {0378d802-dfb6-401b-9dde-19ee13ebc229}, !- Handle
  {08b253cb-e45f-4ff4-aae8-e481eb628197}; !- Name

OS:ScheduleTypeLimits,
  {a24cb4f4-52da-46f8-ab2b-a5ce6886f85d}, !- Handle
  ActivityLevel,                          !- Name
  0,                                      !- Lower Limit Value {BasedOnField A4}
  ,                                       !- Upper Limit Value {BasedOnField A4}
  Continuous,                             !- Numeric Type
  ActivityLevel;                          !- Unit Type

OS:Schedule:Compact,
  {eb4ffe27-2296-47f6-951a-c81a5e17da59}, !- Handle
  WORK_EFF_SCH,                           !- Name
  {96fed110-f8f3-4723-83af-cc2d1b5db192}, !- Schedule Type Limits Name
  Through: 12/31,                         !- Field 1
  For: AllDays,                           !- Field 2
  Until: 24:00,                           !- Field 3
  0.0;                                    !- Field 4

OS:Surface,
  {58e056b0-131d-43b7-b9a4-d6a7363d9e07}, !- Handle
  TopFloor_Plenum_Wall_East,              !- Name
  Wall,                                   !- Surface Type
  {813aea88-0ed5-43bb-bd8a-da5470c30585}, !- Construction Name
  {a6407337-f78f-450d-a47c-2e9eef768247}, !- Space Name
  Outdoors,                               !- Outside Boundary Condition
  ,                                       !- Outside Boundary Condition Object
  SunExposed,                             !- Sun Exposure
  WindExposed,                            !- Wind Exposure
  ,                                       !- View Factor to Ground
  ,                                       !- Number of Vertices
  73.1072, 0, 47.5584,                    !- X,Y,Z Vertex 1 {m}
  73.1072, 0, 46.3392,                    !- X,Y,Z Vertex 2 {m}
  73.1072, 48.7381, 46.3392,              !- X,Y,Z Vertex 3 {m}
  73.1072, 48.7381, 47.5584;              !- X,Y,Z Vertex 4 {m}

OS:Construction,
  {813aea88-0ed5-43bb-bd8a-da5470c30585}, !- Handle
  Mass Non-res Ext Wall,                  !- Name
  ,                                       !- Surface Rendering Name
  {9ec10673-092d-403f-bd44-fed021f0e97e}, !- Layer 1
  {4c369ae0-7170-4cf2-b0bd-e2ed00d3436d}, !- Layer 2
  {c9faaeb1-81b6-4695-be48-74fcbc5f005f}, !- Layer 3
  {45c9b9c1-1788-40fc-bc43-8b75d0ba1d2c}; !- Layer 4

OS:Material,
  {9ec10673-092d-403f-bd44-fed021f0e97e}, !- Handle
  1IN Stucco,                             !- Name
  Smooth,                                 !- Roughness
  0.0253,                                 !- Thickness {m}
  0.6918,                                 !- Conductivity {W/m-K}
  1858,                                   !- Density {kg/m3}
  837,                                    !- Specific Heat {J/kg-K}
  0.9,                                    !- Thermal Absorptance
  0.92,                                   !- Solar Absorptance
  0.92;                                   !- Visible Absorptance

OS:Material,
  {4c369ae0-7170-4cf2-b0bd-e2ed00d3436d}, !- Handle
  8IN CONCRETE HW,                        !- Name
  Rough,                                  !- Roughness
  0.2032,                                 !- Thickness {m}
  1.311,                                  !- Conductivity {W/m-K}
  2240,                                   !- Density {kg/m3}
  836.8,                                  !- Specific Heat {J/kg-K}
  0.9,                                    !- Thermal Absorptance
  0.7,                                    !- Solar Absorptance
  0.7;                                    !- Visible Absorptance

OS:Material,
  {c9faaeb1-81b6-4695-be48-74fcbc5f005f}, !- Handle
  Mass NonRes Wall Insulation,            !- Name
  MediumRough,                            !- Roughness
  0.0495494599433393,                     !- Thickness {m}
  0.049,                                  !- Conductivity {W/m-K}
  265,                                    !- Density {kg/m3}
  836.8,                                  !- Specific Heat {J/kg-K}
  0.9,                                    !- Thermal Absorptance
  0.7,                                    !- Solar Absorptance
  0.7;                                    !- Visible Absorptance

OS:Material,
  {45c9b9c1-1788-40fc-bc43-8b75d0ba1d2c}, !- Handle
  1/2IN Gypsum,                           !- Name
  Smooth,                                 !- Roughness
  0.0127,                                 !- Thickness {m}
  0.16,                                   !- Conductivity {W/m-K}
  784.9,                                  !- Density {kg/m3}
  830,                                    !- Specific Heat {J/kg-K}
  0.9,                                    !- Thermal Absorptance
  0.92,                                   !- Solar Absorptance
  0.92;                                   !- Visible Absorptance

OS:Space,
  {a6407337-f78f-450d-a47c-2e9eef768247}, !- Handle
  TopFloor_Plenum,                        !- Name
  {8ce01e97-2a97-4567-83b4-d6c9129ba0a2}, !- Space Type Name
  ,                                       !- Default Construction Set Name
  ,                                       !- Default Schedule Set Name
  0,                                      !- Direction of Relative North {deg}
  0,                                      !- X Origin {m}
  0,                                      !- Y Origin {m}
  0,                                      !- Z Origin {m}
  {b79fe8ee-d985-423e-a5d5-739714fb8f2e}, !- Building Story Name
  ,                                       !- Thermal Zone Name
  No;                                     !- Part of Total Floor Area

OS:Space,
  {6cd58429-ee79-4262-9fa9-81cf2a15bc46}, !- Handle
  Perimeter_mid_ZN_1,                     !- Name
  {901592fa-4538-431b-8f50-d8907cf0b316}, !- Space Type Name
  ,                                       !- Default Construction Set Name
  ,                                       !- Default Schedule Set Name
  0,                                      !- Direction of Relative North {deg}
  0,                                      !- X Origin {m}
  0,                                      !- Y Origin {m}
  0,                                      !- Z Origin {m}
  {b79fe8ee-d985-423e-a5d5-739714fb8f2e}, !- Building Story Name
  {83aa8377-6f44-40ea-83a8-8a734fff218e}, !- Thermal Zone Name
  Yes,                                    !- Part of Total Floor Area
  {1ee20dcb-276b-4d37-b048-0acf57bea18d}; !- Design Specification Outdoor Air Object Name

OS:ThermostatSetpoint:DualSetpoint,
  {360b228a-3339-4b88-be49-77a5a4d904ed}, !- Handle
  {0ede52c3-cb2f-471a-aed2-ef6afde62548}, !- Name
  {2d44fc20-36cb-4dbb-b233-4b24f39d5f7c}, !- Heating Setpoint Temperature Schedule Name
  {f9be320c-9b22-4552-99f5-d72397d67b0e}; !- Cooling Setpoint Temperature Schedule Name

OS:DesignSpecification:OutdoorAir,
  {1ee20dcb-276b-4d37-b048-0acf57bea18d}, !- Handle
  SZ DSOA Perimeter_mid_ZN_1,             !- Name
  ,                                       !- Outdoor Air Method
  0.0125,                                 !- Outdoor Air Flow per Person {m3/s-person}
  ,                                       !- Outdoor Air Flow per Floor Area {m3/s-m2}
  ,                                       !- Outdoor Air Flow Rate {m3/s}
  ,                                       !- Outdoor Air Flow Air Changes per Hour {1/hr}
  ;                                       !- Outdoor Air Flow Rate Fraction Schedule Name

OS:Lights:Definition,
  {eb2cf4f4-5165-473b-a7db-c1b2a3b19ff7}, !- Handle
  Basement_Lights Definition,             !- Name
  Watts/Area,                             !- Design Level Calculation Method
  ,                                       !- Lighting Level {W}
  10.76,                                  !- Watts per Space Floor Area {W/m2}
  ,                                       !- Watts per Person {W/person}
  0.7,                                    !- Fraction Radiant
  0.2,                                    !- Fraction Visible
  0,                                      !- Return Air Fraction
  No;                                     !- Return Air Fraction Calculated from Plenum Temperature

OS:Lights,
  {48b053ed-a86c-45b4-a82f-9743d1b6cff2}, !- Handle
  Basement_Lights,                        !- Name
  {eb2cf4f4-5165-473b-a7db-c1b2a3b19ff7}, !- Lights Definition Name
  {2a3462ee-75e2-4eba-a8af-d25224fe68d0}, !- Space or SpaceType Name
  {44479ece-bbca-4597-a63d-462a0b3d07f7}, !- Schedule Name
  1,                                      !- Fraction Replaceable