
OS:Version,
  {c548d0cd-2bd9-41c5-9da7-600092af1e17}, !- Handle
  1.8.0;                                  !- Version Identifier

OS:Site,
  {9d448005-f9d8-4a2f-bad1-102bf7988a31}, !- Handle
  USA IL-CHICAGO-OHARE,                   !- Name
  41.77,                                  !- Latitude {deg}
  -87.75,                                 !- Longitude {deg}
  -6,                                     !- Time Zone {hr}
  190,                                    !- Elevation {m}
  City;                                   !- Terrain

OS:SimulationControl,
  {4aa96ba9-2dd0-43e4-ae31-a9f8dbb87a44}, !- Handle
  Yes,                                    !- Do Zone Sizing Calculation
  Yes,                                    !- Do System Sizing Calculation
  Yes,                                    !- Do Plant Sizing Calculation
  No,                                     !- Run Simulation for Sizing Periods
  Yes,                                    !- Run Simulation for Weather File Run Periods
  0.04,                                   !- Loads Convergence Tolerance Value
  0.2,                                    !- Temperature Convergence Tolerance Value {deltaC}
  FullInteriorAndExterior,                !- Solar Distribution
  25,                                     !- Maximum Number of Warmup Days
  6;                                      !- Minimum Number of Warmup Days

OS:Lights:Definition,
  {5c4b1227-4767-4146-ae42-d83150cabfeb}, !- Handle
  Perimeter_mid_ZN_1_Lights Definition,   !- Name
  Watts/Area,                             !- Design Level Calculation Method
  ,                                       !- Lighting Level {W}
  10.76,                                  !- Watts per Space Floor Area {W/m2}
  ,                                       !- Watts per Person {W/person}
  0.7,                                    !- Fraction Radiant
  0.2,                                    !- Fraction Visible
  0,                                      !- Return Air Fraction
  No;                                     !- Return Air Fraction Calculated from Plenum Temperature

OS:Lights,
  {0e970f01-5f6f-41d5-b9a1-4b3f2cd19b7e}, !- Handle
  Perimeter_mid_ZN_1_Lights,              !- Name
  {5c4b1227-4767-4146-ae42-d83150cabfeb}, !- Lights Definition Name
  {bdf544d0-91f4-4414-a8d3-493e62da0dcc}, !- Space or SpaceType Name
  {2fa8724c-e748-48b9-a30b-feccb7839e1c}, !- Schedule Name
  1,                                      !- Fraction Replaceable
  ,                                       !- Multiplier
  General;                                !- End-Use Subcategory

OS:Space,
  {bdf544d0-91f4-4414-a8d3-493e62da0dcc}, !- Handle
  Perimeter_mid_ZN_1,                     !- Name
  {de3014ce-e375-4851-b3ae-c73a1d941c34}, !- Space Type Name
  ,                                       !- Default Construction Set Name
  ,                                       !- Default Schedule Set Name
  0,                                      !- Direction of Relative North {deg}
  0,                                      !- X Origin {m}
  0,                                      !- Y Origin {m}
  0,                                      !- Z Origin {m}
  {b3e6519a-9fc1-43a2-9590-3b147aa870f8}, !- Building Story Name
  {3cee61fe-9136-46c4-aac7-6b7fd8ade2a4}, !- Thermal Zone Name
  Yes,                                    !- Part of Total Floor Area
  {e72d8cb7-e487-4d38-89bf-5b339ca291cd}; !- Design Specification Outdoor Air Object Name

OS:ThermostatSetpoint:DualSetpoint,
  {aabadf7b-1111-49a3-a802-9065c76856ad}, !- Handle
  {af84d433-ba15-4ab1-bcf0-fd8d3105f827}, !- Name
  {0b16d238-bec5-4e60-8e6e-cb45a4d54e07}, !- Heating Setpoint Temperature Schedule Name
  {816d75cf-f05b-47b5-a633-3473ddc52256}; !- Cooling Setpoint Temperature Schedule Name

OS:Schedule:Compact,
  {0b16d238-bec5-4e60-8e6e-cb45a4d54e07}, !- Handle
  HTGSETP_SCH,                            !- Name
  {79134424-dc00-4fc6-bce0-ce89ec18b7f0}, !- Schedule Type Limits Name
  Through: 12/31,                         !- Field 1
  For: Weekdays,                          !- Field 2
  Until: 06:00,                           !- Field 3
  15.6,                                   !- Field 4
  Until: 22:00,                           !- Field 5
  21.0,                                   !- Field 6
  Until: 24:00,                           !- Field 7
  15.6,                                   !- Field 8
  For SummerDesignDay,                    !- Field 9
  Until: 24:00,                           !- Field 10
  15.6,                                   !- Field 11
  For: Saturday,                          !- Field 12
  Until: 06:00,                           !- Field 13
  15.6,                                   !- Field 14
  Until: 18:00,                           !- Field 15
  21.0,                                   !- Field 16
  Until: 24:00,                           !- Field 17
  15.6,                                   !- Field 18
  For: WinterDesignDay,                   !- Field 19
  Until: 24:00,                           !- Field 20
  21.0,                                   !- Field 21
  For: AllOtherDays,                      !- Field 22
  Until: 24:00,                           !- Field 23
  15.6;                                   !- Field 24

OS:ScheduleTypeLimits,
  {79134424-dc00-4fc6-bce0-ce89ec18b7f0}, !- Handle
  Temperature,                            !- Name
  -60,                                    !- Lower Limit Value {BasedOnField A4}
  200,                                    !- Upper Limit Value {BasedOnField A4}
  CONTINUOUS,                             !- Numeric Type
  Temperature;                            !- Unit Type

OS:Schedule:Compact,
  {816d75cf-f05b-47b5-a633-3473ddc52256}, !- Handle
  CLGSETP_SCH,                            !- Name
  {79134424-dc00-4fc6-bce0-ce89ec18b7f0}, !- Schedule Type Limits Name
  Through: 12/31,                         !- Field 1
  For: Weekdays SummerDesignDay,          !- Field 2
  Until: 06:00,                           !- Field 3
  26.7,                                   !- Field 4
  Until: 22:00,                           !- Field 5
  24.0,                                   !- Field 6
  Until: 24:00,                           !- Field 7
  26.7,                                   !- Field 8
  For: Saturday,                          !- Field 9
  Until: 06:00,                           !- Field 10
  26.7,                                   !- Field 11
  Until: 18:00,                           !- Field 12
  24.0,                                   !- Field 13
  Until: 24:00,                           !- Field 14
  26.7,                                   !- Field 15
  For WinterDesignDay,                    !- Field 16
  Until: 24:00,                           !- Field 17
  26.7,                                   !- Field 18
  For: AllOtherDays,                      !- Field 19
  Until: 24:00,                           !- Field 20
  26.7;                                   !- Field 21

OS:Schedule:Compact,
  {2fa8724c-e748-48b9-a30b-feccb7839e1c}, !- Handle
  BLDG_LIGHT_SCH,                         !- Name
  {e7ba57b4-7e36-47de-998d-54e94728ad5e}, !- Schedule Type Limits Name
  Through: 12/31,                         !- Field 1
  For: Weekdays,                          !- Field 2
  Until: 05:00,                           !- Field 3
  0.05,                                   !- Field 4
  Until: 07:00,                           !- Field 5
  0.1,                                    !- Field 6
  Until: 08:00,                           !- Field 7
  0.3,                                    !- Field 8
  Until: 17:00,                           !- Field 9
  0.9,                                    !- Field 10
  Until: 18:00,                           !- Field 11
  0.7,                                    !- Field 12
  Until: 20:00,                           !- Field 13
  0.5,                                    !- Field 14
  Until: 22:00,                           !- Field 15
  0.3,                                    !- Field 16
  Until: 23:00,                           !- Field 17
  0.1,                                    !- Field 18
  Until: 24:00,                           !- Field 19
  0.05,                                   !- Field 20
  For: Saturday,                          !- Field 21
  Until: 06:00,                           !- Field 22
  0.05,                                   !- Field 23
  Until: 08:00,                           !- Field 24
  0.1,                                    !- Field 25
  Until: 14:00,                           !- Field 26
  0.5,                                    !- Field 27
  Until: 17:00,                           !- Field 28
  0.15,                                   !- Field 29
  Until: 24:00,                           !- Field 30
  0.05,                                   !- Field 31
  For: SummerDesignDay,                   !- Field 32
  Until: 24:00,                           !- Field 33
  1.0,                                    !- Field 34
  For: WinterDesignDay,                   !- Field 35
  Until: 24:00,                           !- Field 36
  0.0,                                    !- Field 37
  For: AllOtherDays,                      !- Field 38
  Until: 24:00,                           !- Field 39
  0.05;                                   !- Field 40

OS:ScheduleTypeLimits,
  {e7ba57b4-7e36-47de-998d-54e94728ad5e}, !- Handle
  Fraction,                               !- Name
  0,                                      !- Lower Limit Value {BasedOnField A4}
  1,                                      !- Upper Limit Value {BasedOnField A4}
  CONTINUOUS;                             !- Numeric Type

OS:InternalMass:Definition,
  {a5335bcb-24b5-4996-9a2c-5813d7681ef7}, !- Handle
  Perimeter_mid_ZN_2 Internal Mass Definition, !- Name
  {a6d4b1d0-d68c-42f8-b7df-f940eb54ac65}, !- Construction Name
  SurfaceArea,                            !- Design Level Calculation Method
  403.9503,                               !- Surface Area {m2}
  ,                                       !- Surface Area per Space Floor Area {dimensionless}
  ;                                       !- Surface Area per Person {m2/person}

OS:Construction,
  {a6d4b1d0-d68c-42f8-b7df-f940eb54ac65}, !- Handle
  InteriorFurnishings,                    !- Name
  ,                                       !- Surface Rendering Name
  {f300dff7-e8ae-4a18-ab64-338d668b066c}; !- Layer 1

OS:Material,
  {f300dff7-e8ae-4a18-ab64-338d668b066c}, !- Handle
  Std Wood 6inch,                         !- Name
  MediumSmooth,                           !- Roughness
  0.15,                                   !- Thickness {m}
  0.12,                                   !- Conductivity {W/m-K}
  540,                                    !- Density {kg/m3}
  1210,                                   !- Specific Heat {J/kg-K}
  0.9,                                    !- Thermal Absorptance
  0.7,                                    !- Solar Absorptance
  0.7;                                    !- Visible Absorptance

OS:InternalMass,
  {297dd0aa-0b48-4195-a214-8c7972c32949}, !- Handle
  Perimeter_mid_ZN_2 Internal Mass,       !- Name
  {a5335bcb-24b5-4996-9a2c-5813d7681ef7}, !- Internal Mass Definition Name
  {f0e56a1a-b959-4ef6-ab64-568fbbe5e413}; !- Space or SpaceType Name

OS:Space,
  {f0e56a1a-b959-4ef6-ab64-568fbbe5e413}, !- Handle
  Perimeter_mid_ZN_2,                     !- Name
  {de3014ce-e375-4851-b3ae-c73a1d941c34}, !- Space Type Name
  ,                                       !- Default Construction Set Name
  ,                                       !- Default Schedule Set Name
  0,                                      !- Direction of Relative North {deg}
  0,                                      !- X Origin {m}
  0,                                      !- Y Origin {m}
  0,                                      !- Z Origin {m}
  {b3e6519a-9fc1-43a2-9590-3b147aa870f8}, !- Building Story Name
  {6eba5955-8382-4cac-bd4d-8a1bb4cca92e}, !- Thermal Zone Name
  Yes,                                    !- Part of Total Floor Area
  {8ba31a79-ec4a-48f8-9397-669107524c02}; !- Design Specification Outdoor Air Object Name

OS:ThermostatSetpoint:DualSetpoint,
  {6d25ab91-a1a5-4b57-b7cf-5656393f74ae}, !- Handle
  {0783c7b1-41e9-4aab-962d-619d784f6ec7}, !- Name
  {0b16d238-bec5-4e60-8e6e-cb45a4d54e07}, !- Heating Setpoint Temperature Schedule Name
  {816d75cf-f05b-47b5-a633-3473ddc52256}; !- Cooling Setpoint Temperature Schedule Name

OS:Space,
  {bc95571a-f485-42ec-bb31-8fec277c1805}, !- Handle
  GroundFloor_Plenum,                     !- Name
  {08c7ba5c-e0ac-4765-87c4-5d0ecb59e51e}, !- Space Type Name
  ,                                       !- Default Construction Set Name
  ,                                       !- Default Schedule Set Name
  0,                                      !- Direction of Relative North {deg}
  0,                                      !- X Origin {m}
  0,                                      !- Y Origin {m}
  0,                                      !- Z Origin {m}
  {b3e6519a-9fc1-43a2-9590-3b147aa870f8}, !- Building Story Name
  ,                                       !- Thermal Zone Name
  No;                                     !- Part of Total Floor Area

OS:Space,
  {1eea2d24-0dad-45a8-9c28-5c95692dacdf}, !- Handle
  Core_bottom,                            !- Name
  {de3014ce-e375-4851-b3ae-c73a1d941c34}, !- Space Type Name
  ,                                       !- Default Construction Set Name
  ,                                       !- Default Schedule Set Name
  0,                                      !- Direction of Relative North {deg}
  0,                                      !- X Origin {m}
  0,                                      !- Y Origin {m}
  0,                                      !- Z Origin {m}
  {b3e6519a-9fc1-43a2-9590-3b147aa870f8}, !- Building Story Name
  {a6a676ef-b4bb-4e1d-9542-3895100c0d43}, !- Thermal Zone Name
  Yes,                                    !- Part of Total Floor Area
  {fd201cbb-7760-4554-8d50-9e45e457855a}; !- Design Specification Outdoor Air Object Name

OS:ThermostatSetpoint:DualSetpoint,
  {aca73695-39fc-4b8b-a861-6231803bcd26}, !- Handle
  {9e8a9eb7-b583-44f1-80f5-772081d378fd}, !- Name
  {0b16d238-bec5-4e60-8e6e-cb45a4d54e07}, !- Heating Setpoint Temperature Schedule Name
  {816d75cf-f05b-47b5-a633-3473ddc52256}; !- Cooling Setpoint Temperature Schedule Name

OS:DesignSpecification:OutdoorAir,
  {fd201cbb-7760-4554-8d50-9e45e457855a}, !- Handle
  SZ DSOA Core_bottom,                    !- Name
  ,                                       !- Outdoor Air Method
  0.0125,                                 !- Outdoor Air Flow per Person {m3/s-person}
  ,                                       !- Outdoor Air Flow per Floor Area {m3/s-m2}
  ,                                       !- Outdoor Air Flow Rate {m3/s}
  ,                                       !- Outdoor Air Flow Air Changes per Hour {1/hr}
  ;                                       !- Outdoor Air Flow Rate Fraction Schedule Name

OS:Space,
  {78941c7b-2cc0-4a94-b0dc-b6bdf4fa7216}, !- Handle
  Perimeter_bot_ZN_3,                     !- Name
  {de3014ce-e375-4851-b3ae-c73a1d941c34}, !- Space Type Name
  ,                                       !- Default Construction Set Name
  ,                                       !- Default Schedule Set Name
  0,                                      !- Direction of Relative North {deg}
  0,                                      !- X Origin {m}
  0,                                      !- Y Origin {m}
  0,                                      !- Z Origin {m}
  {b3e6519a-9fc1-43a2-9590-3b147aa870f8}, !- Building Story Name
  {cf9a44ca-cdd8-464f-a9ad-884c5920cb89}, !- Thermal Zone Name
  Yes,                                    !- Part of Total Floor Area
  {84c54461-6528-484d-9a28-c33b6da9f9db}; !- Design Specification Outdoor Air Object Name

OS:ThermostatSetpoint:DualSetpoint,
  {7d3ff4c9-d0d3-44e4-bf7c-0d49c4528721}, !- Handle
  {05134698-4f50-4c2d-bf33-41e86bb6ac54}, !- Name
  {0b16d238-bec5-4e60-8e6e-cb45a4d54e07}, !- Heating Setpoint Temperature Schedule Name
  {816d75cf-f05b-47b5-a633-3473ddc52256}; !- Cooling Setpoint Temperature Schedule Name

OS:Meter,
  {80b59bb4-457e-4ee6-a401-61e14452e33b}, !- Handle
  InteriorLights:Electricity,             !- Name
  hourly,                                 !- Reporting Frequency
  False,                                  !- Meter File Only
  False;                                  !- Cumulative

OS:People:Definition,
  {1a686794-93b8-4cf4-a98e-a766999710a9}, !- Handle
  Perimeter_bot_ZN_3 People Definition,   !- Name
  Area/Person,                            !- Number of People Calculation Method
  ,                                       !- Number of People {people}
  ,                                       !- People per Space Floor Area {person/m2}
  18.58,                                  !- Space Floor Area per Person {m2/person}
  0.3,                                    !- Fraction Radiant
  ,                                       !- Sensible Heat Fraction
  ,                                       !- Carbon Dioxide Generation Rate {m3/s-W}
  No,                                     !- Enable ASHRAE 55 Comfort Warnings
  ZoneAveraged;                           !- Mean Radiant Temperature Calculation Type

OS:People,
  {0e40485b-e838-4885-976f-67c5b221e3ca}, !- Handle
  Perimeter_bot_ZN_3 People,              !- Name
  {1a686794-93b8-4cf4-a98e-a766999710a9}, !- People Definition Name
  {78941c7b-2cc0-4a94-b0dc-b6bdf4fa7216}, !- Space or SpaceType Name
  {3960b237-3ccc-466f-8ea0-c0b0db72ad59}, !- Number of People Schedule Name
  {9e39594a-d80d-4968-9234-f1d1d7b0aca2}, !- Activity Level Schedule Name
  ,                                       !- Surface Name/Angle Factor List Name
  {436cf2cb-b1db-4862-abea-19b43f625b41}; !- Work Efficiency Schedule Name

OS:Schedule:Compact,
  {3960b237-3ccc-466f-8ea0-c0b0db72ad59}, !- Handle
  BLDG_OCC_SCH,                           !- Name
  {e7ba57b4-7e36-47de-998d-54e94728ad5e}, !- Schedule Type Limits Name
  Through: 12/31,                         !- Field 1
  For: SummerDesignDay,                   !- Field 2
  Until: 06:00,                           !- Field 3
  0.0,                                    !- Field 4
  Until: 22:00,                           !- Field 5
  1.0,                                    !- Field 6
  Until: 24:00,                           !- Field 7
  0.05,                                   !- Field 8
  For: Weekdays,                          !- Field 9
  Until: 06:00,                           !- Field 10
  0.0,                                    !- Field 11
  Until: 07:00,                           !- Field 12
  0.1,                                    !- Field 13
  Until: 08:00,                           !- Field 14
  0.2,                                    !- Field 15
  Until: 12:00,                           !- Field 16
  0.95,                                   !- Field 17
  Until: 13:00,                           !- Field 18
  0.5,                                    !- Field 19
  Until: 17:00,                           !- Field 20
  0.95,                                   !- Field 21
  Until: 18:00,                           !- Field 22
  0.7,                                    !- Field 23
  Until: 20:00,                           !- Field 24
  0.4,                                    !- Field 25
  Until: 22:00,                           !- Field 26
  0.1,                                    !- Field 27
  Until: 24:00,                           !- Field 28
  0.05,                                   !- Field 29
  For: Saturday,                          !- Field 30
  Until: 06:00,                           !- Field 31
  0.0,                                    !- Field 32
  Until: 08:00,                           !- Field 33
  0.1,                                    !- Field 34
  Until: 14:00,                           !- Field 35
  0.5,                                    !- Field 36
  Until: 17:00,                           !- Field 37
  0.1,                                    !- Field 38
  Until: 24:00,                           !- Field 39
  0.0,                                    !- Field 40
  For: AllOtherDays,                      !- Field 41
  Until: 24:00,                           !- Field 42
  0.0;                                    !- Field 43

OS:Schedule:Compact,
  {9e39594a-d80d-4968-9234-f1d1d7b0aca2}, !- Handle
  ACTIVITY_SCH,                           !- Name
  {9ab7b2b2-9de0-4ee4-9e3a-481a9898fede}, !- Schedule Type Limits Name
  Through: 12/31,                         !- Field 1
  For: AllDays,                           !- Field 2
  Until: 24:00,                           !- Field 3
  120;                                    !- Field 4

OS:ScheduleTypeLimits,
  {e8061b5c-91f9-4d32-bdcc-c62f463973f9}, !- Handle
  {ba7c86c3-e126-4010-b73e-feec0656e606}; !- Name

OS:ScheduleTypeLimits,
  {9ab7b2b2-9de0-4ee4-9e3a-481a9898fede}, !- Handle
  ActivityLevel,                          !- Name
  0,                                      !- Lower Limit Value {BasedOnField A4}
  ,                                       !- Upper Limit Value {BasedOnField A4}
  Continuous,                             !- Numeric Type
  ActivityLevel;                          !- Unit Type

OS:Schedule:Compact,
  {436cf2cb-b1db-4862-abea-19b43f625b41}, !- Handle
  WORK_EFF_SCH,                           !- Name
  {e7ba57b4-7e36-47de-998d-54e94728ad5e}, !- Schedule Type Limits Name
  Through: 12/31,                         !- Field 1
  For: AllDays,                           !- Field 2
  Until: 24:00,                           !- Field 3
  0.0;                                    !- Field 4

OS:Surface,
  {f52aff58-18f8-48c9-8404-8e05c78f783b}, !- Handle
  Core_bot_ZN_5_Wall_West,                !- Name
  Wall,                                   !- Surface Type
  {f6b58cdf-9d03-40e0-aba1-9986779ff51b}, !- Construction Name
  {1eea2d24-0dad-45a8-9c28-5c95692dacdf}, !- Space Name
  Surface,                                !- Outside Boundary Condition
  {26a8863d-4b0c-463c-aaa5-360c56bc4ab8}, !- Outside Boundary Condition Object
  NoSun,                                  !- Sun Exposure
  NoWind,                                 !- Wind Exposure
  ,                                       !- View Factor to Ground
  ,                                       !- Number of Vertices
  4.5732, 44.165, 2.744,                  !- X,Y,Z Vertex 1 {m}
  4.5732, 44.165, 0,                      !- X,Y,Z Vertex 2 {m}
  4.5732, 4.5732, 0,                      !- X,Y,Z Vertex 3 {m}
  4.5732, 4.5732, 2.744;                  !- X,Y,Z Vertex 4 {m}

OS:Construction,
  {f6b58cdf-9d03-40e0-aba1-9986779ff51b}, !- Handle
  int-walls,                              !- Name
  ,                                       !- Surface Rendering Name
  {6828b1bf-1645-475e-bd62-58790b4cad0e}, !- Layer 1
  {6828b1bf-1645-475e-bd62-58790b4cad0e}; !- Layer 2

OS:Material,
  {6828b1bf-1645-475e-bd62-58790b4cad0e}, !- Handle
  1/2IN Gypsum,                           !- Name
  Smooth,                                 !- Roughness
  0.0127,                                 !- Thickness {m}
  0.16,                                   !- Conductivity {W/m-K}
  784.9,                                  !- Density {kg/m3}
  830,                                    !- Specific Heat {J/kg-K}
  0.9,                                    !- Thermal Absorptance
  0.92,                                   !- Solar Absorptance
  0.92;                                   !- Visible Absorptance

OS:ThermostatSetpoint:DualSetpoint,
  {a558fd85-a3e0-464e-8d42-9b2ff1d0220a}, !- Handle
  {6d3f132e-d3ab-4bb1-a0bb-1b4daad25f07}, !- Name
  {0b16d238-bec5-4e60-8e6e-cb45a4d54e07}, !- Heating Setpoint Temperature Schedule Name
  {816d75cf-f05b-47b5-a633-3473ddc52256}; !- Cooling Setpoint Temperature Schedule Name

OS:SubSurface,
  {64289e04-8e19-4e5f-bd33-503819ef1cc7}, !- Handle
  Perimeter_mid_ZN_4_Wall_West_Window,    !- Name
  FixedWindow,                            !- Sub Surface Type
  {63e973ed-37cd-48d9-82c3-4ecdc45d70d1}, !- Construction Name
  {43b7c282-2ebc-4579-8068-4bc0c4965405}, !- Surface Name
  ,                                       !- Outside Boundary Condition Object
  ,                                       !- View Factor to Ground
  ,                                       !- Shading Control Name
  ,                                       !- Frame and Divider Name
  1,                                      !- Multiplier
  ,                                       !- Number of Vertices
  0, 48.738, 22.316,                      !- X,Y,Z Vertex 1 {m}
  0, 48.738, 20.7306,                     !- X,Y,Z Vertex 2 {m}
  0, 0, 20.7306,                          !- X,Y,Z Vertex 3 {m}
  0, 0, 22.316;                           !- X,Y,Z Vertex 4 {m}

OS:Construction,
  {63e973ed-37cd-48d9-82c3-4ecdc45d70d1}, !- Handle
  Window Non-res Fixed,                   !- Name
  ,                                       !- Surface Rendering Name
  {2befa7ae-7eb2-478b-9397-6ae07f954a77}; !- Layer 1

OS:WindowMaterial:SimpleGlazingSystem,
  {2befa7ae-7eb2-478b-9397-6ae07f954a77}, !- Handle
  NonRes Fixed Assembly Window,           !- Name
  3.23646,                                !- U-Factor {W/m2-K}
  0.39;                                   !- Solar Heat Gain Coefficient

OS:Surface,
  {43b7c282-2ebc-4579-8068-4bc0c4965405}, !- Handle
  Perimeter_mid_ZN_4_Wall_West,           !- Name
  Wall,                                   !- Surface Type
  {2c88a484-cdfa-4d48-acbe-d232f171196d}, !- Construction Name
  {0df8ff19-83a5-4a54-b82e-f4bfe659c74e}, !- Space Name
  Outdoors,                               !- Outside Boundary Condition
  ,                                       !- Outside Boundary Condition Object
  SunExposed,                             !- Sun Exposure
  WindExposed,                            !- Wind Exposure
  ,                                       !- View Factor to Ground
  ,                                       !- Number of Vertices
  0, 48.7381, 22.56,                      !- X,Y,Z Vertex 1 {m}
  0, 48.7381, 19.816,                     !- X,Y,Z Vertex 2 {m}
  0, 0, 19.816,                           !- X,Y,Z Vertex 3 {m}
  0, 0, 22.56;                            !- X,Y,Z Vertex 4 {m}

OS:Construction,
  {2c88a484-cdfa-4d48-acbe-d232f171196d}, !- Handle
  Mass Non-res Ext Wall,                  !- Name
  ,                                       !- Surface Rendering Name
  {bbf7bd2b-aa37-4ba3-917f-8a97d7a16781}, !- Layer 1
  {f2f4bdb8-c623-4b87-8998-d025a1413411}, !- Layer 2
  {6ff63221-cfaf-42b1-8db7-266fcec343f9}, !- Layer 3
  {6828b1bf-1645-475e-bd62-58790b4cad0e}; !- Layer 4

OS:Material,
  {bbf7bd2b-aa37-4ba3-917f-8a97d7a16781}, !- Handle
  1IN Stucco,                             !- Name
  Smooth,                                 !- Roughness
  0.0253,                                 !- Thickness {m}
  0.6918,                                 !- Conductivity {W/m-K}
  1858,                                   !- Density {kg/m3}
  837,                                    !- Specific Heat {J/kg-K}
  0.9,                                    !- Thermal Absorptance
  0.92,                                   !- Solar Absorptance
  0.92;                                   !- Visible Absorptance

OS:Material,
  {f2f4bdb8-c623-4b87-8998-d025a1413411}, !- Handle
  8IN CONCRETE HW,                        !- Name
  Rough,                                  !- Roughness
  0.2032,                                 !- Thickness {m}
  1.311,                                  !- Conductivity {W/m-K}
  2240,                                   !- Density {kg/m3}
  836.8,                                  !- Specific Heat {J/kg-K}
  0.9,                                    !- Thermal Absorptance
  0.7,                                    !- Solar Absorptance
  0.7;                                    !- Visible Absorptance

OS:Material,
  {6ff63221-cfaf-42b1-8db7-266fcec343f9}, !- Handle
  Mass NonRes Wall Insulation,            !- Name
  MediumRough,                            !- Roughness
  0.0495494599433393,                     !- Thickness {m}
  0.049,                                  !- Conductivity {W/m-K}
  265,                                    !- Density {kg/m3}
  836.8,                                  !- Specific Heat {J/kg-K}
  0.9,                                    !- Thermal Absorptance
  0.7,                                    !- Solar Absorptance
  0.7;                                    !- Visible Absorptance

OS:Space,
  {0df8ff19-83a5-4a54-b82e-f4bfe659c74e}, !- Handle
  Perimeter_mid_ZN_4,                     !- Name
  {de3014ce-e375-4851-b3ae-c73a1d941c34}, !- Space Type Name
  ,                                       !- Default Construction Set Name
  ,                                       !- Default Schedule Set Name
  0,                                      !- Direction of Relative North {deg}
  0,                                      !- X Origin {m}
  0,                                      !- Y Origin {m}
  0,                                      !- Z Origin {m}
  {b3e6519a-9fc1-43a2-9590-3b147aa870f8}, !- Building Story Name
  {fa6059cf-b612-49f8-8ad3-62c8f8c25915}, !- Thermal Zone Name
  Yes,                                    !- Part of Total Floor Area
  {65bc955e-eae1-4764-9f5a-9e3fcf9799cc}; !- Design Specification Outdoor Air Object Name

OS:ThermostatSetpoint:DualSetpoint,
  {5f6a9744-13cc-4149-9da6-5c829e667d70}, !- Handle
  {977eb5e8-8a1f-4bdb-8d97-bff868c1eccd}, !- Name
  {0b16d238-bec5-4e60-8e6e-cb45a4d54e07}, !- Heating Setpoint Temperature Schedule Name
  {816d75cf-f05b-47b5-a633-3473ddc52256}; !- Cooling Setpoint Temperature Schedule Name

OS:Schedule:Compact,
  {2610ba0e-9429-4fa6-bdf5-aa20d99ba52d}, !- Handle
  MinOA_MotorizedDamper_Sched,            !- Name
  {e7ba57b4-7e36-47de-998d-54e94728ad5e}, !- Schedule Type Limits Name