
OS:Version,
  {615c0870-ad1b-4426-8248-22fda3a4da1a}, !- Handle
  1.8.5;                                  !- Version Identifier

OS:Site,
  {3b053787-1cd2-49ce-bef7-db6883c54ab8}, !- Handle
  USA IL-CHICAGO-OHARE,                   !- Name
  41.77,                                  !- Latitude {deg}
  -87.75,                                 !- Longitude {deg}
  -6,                                     !- Time Zone {hr}
  190,                                    !- Elevation {m}
  City;                                   !- Terrain

OS:SimulationControl,
  {5c21e018-c267-4ffe-8bf6-2b9e06e8fb94}, !- Handle
  Yes,                                    !- Do Zone Sizing Calculation
  Yes,                                    !- Do System Sizing Calculation
  Yes,                                    !- Do Plant Sizing Calculation
  No,                                     !- Run Simulation for Sizing Periods
  Yes,                                    !- Run Simulation for Weather File Run Periods
  0.04,                                   !- Loads Convergence Tolerance Value
  0.2,                                    !- Temperature Convergence Tolerance Value {deltaC}
  FullInteriorAndExterior,                !- Solar Distribution
  25,                                     !- Maximum Number of Warmup Days
  6;                                      !- Minimum Number of Warmup Days

OS:SubSurface,
  {772c1ae3-9d43-43e2-967b-ad38e7c6d51a}, !- Handle
  Perimeter_bot_ZN_3_Wall_North_Window,   !- Name
  FixedWindow,                            !- Sub Surface Type
  {6466fd51-eca0-4f33-bd72-8cf05b112dc7}, !- Construction Name
  {34ee92c1-6044-4c4e-8223-5355fddab2fb}, !- Surface Name
  ,                                       !- Outside Boundary Condition Object
  ,                                       !- View Factor to Ground
  ,                                       !- Shading Control Name
  ,                                       !- Frame and Divider Name
  1,                                      !- Multiplier
  ,                                       !- Number of Vertices
  73.107, 48.7381, 2.5,                   !- X,Y,Z Vertex 1 {m}
  73.107, 48.7381, 0.9146,                !- X,Y,Z Vertex 2 {m}
  0, 48.7381, 0.9146,                     !- X,Y,Z Vertex 3 {m}
  0, 48.7381, 2.5;                        !- X,Y,Z Vertex 4 {m}

OS:Construction,
  {6466fd51-eca0-4f33-bd72-8cf05b112dc7}, !- Handle
  Window Non-res Fixed,                   !- Name
  ,                                       !- Surface Rendering Name
  {6da29a29-b6b5-4a64-ba35-bc65e295e187}; !- Layer 1

OS:WindowMaterial:SimpleGlazingSystem,
  {6da29a29-b6b5-4a64-ba35-bc65e295e187}, !- Handle
  NonRes Fixed Assembly Window,           !- Name
  3.23646,                                !- U-Factor {W/m2-K}
  0.39;                                   !- Solar Heat Gain Coefficient

OS:Surface,
  {34ee92c1-6044-4c4e-8223-5355fddab2fb}, !- Handle
  Perimeter_bot_ZN_3_Wall_North,          !- Name
  Wall,                                   !- Surface Type
  {858e5a66-849e-4c45-88da-62fc14e5de6b}, !- Construction Name
  {92dad29d-4934-42f4-a659-70abf5f30c3a}, !- Space Name
  Outdoors,                               !- Outside Boundary Condition
  ,                                       !- Outside Boundary Condition Object
  SunExposed,                             !- Sun Exposure
  WindExposed,                            !- Wind Exposure
  ,                                       !- View Factor to Ground
  ,                                       !- Number of Vertices
  73.1072, 48.7381, 2.744,                !- X,Y,Z Vertex 1 {m}
  73.1072, 48.7381, 0,                    !- X,Y,Z Vertex 2 {m}
  0, 48.7381, 0,                          !- X,Y,Z Vertex 3 {m}
  0, 48.7381, 2.744;                      !- X,Y,Z Vertex 4 {m}

OS:Construction,
  {858e5a66-849e-4c45-88da-62fc14e5de6b}, !- Handle
  Mass Non-res Ext Wall,                  !- Name
  ,                                       !- Surface Rendering Name
  {49f18806-5585-4981-8615-312c9b1a41c7}, !- Layer 1
  {627973cb-a3db-481a-949c-2812490739ee}, !- Layer 2
  {76a98889-a463-4330-814c-52bdc64cf19a}, !- Layer 3
  {7d678f6e-3cb8-40c6-94e1-a446253c7a91}; !- Layer 4

OS:Material,
  {49f18806-5585-4981-8615-312c9b1a41c7}, !- Handle
  1IN Stucco,                             !- Name
  Smooth,                                 !- Roughness
  0.0253,                                 !- Thickness {m}
  0.6918,                                 !- Conductivity {W/m-K}
  1858,                                   !- Density {kg/m3}
  837,                                    !- Specific Heat {J/kg-K}
  0.9,                                    !- Thermal Absorptance
  0.92,                                   !- Solar Absorptance
  0.92;                                   !- Visible Absorptance

OS:Material,
  {627973cb-a3db-481a-949c-2812490739ee}, !- Handle
  8IN CONCRETE HW,                        !- Name
  Rough,                                  !- Roughness
  0.2032,                                 !- Thickness {m}
  1.311,                                  !- Conductivity {W/m-K}
  2240,                                   !- Density {kg/m3}
  836.8,                                  !- Specific Heat {J/kg-K}
  0.9,                                    !- Thermal Absorptance
  0.7,                                    !- Solar Absorptance
  0.7;                                    !- Visible Absorptance

OS:Material,
  {76a98889-a463-4330-814c-52bdc64cf19a}, !- Handle
  Mass NonRes Wall Insulation,            !- Name
  MediumRough,                            !- Roughness
  0.0495494599433393,                     !- Thickness {m}
  0.049,                                  !- Conductivity {W/m-K}
  265,                                    !- Density {kg/m3}
  836.8,                                  !- Specific Heat {J/kg-K}
  0.9,                                    !- Thermal Absorptance
  0.7,                                    !- Solar Absorptance
  0.7;                                    !- Visible Absorptance

OS:Material,
  {7d678f6e-3cb8-40c6-94e1-a446253c7a91}, !- Handle
  1/2IN Gypsum,                           !- Name
  Smooth,                                 !- Roughness
  0.0127,                                 !- Thickness {m}
  0.16,                                   !- Conductivity {W/m-K}
  784.9,                                  !- Density {kg/m3}
  830,                                    !- Specific Heat {J/kg-K}
  0.9,                                    !- Thermal Absorptance
  0.92,                                   !- Solar Absorptance
  0.92;                                   !- Visible Absorptance

OS:Space,
  {92dad29d-4934-42f4-a659-70abf5f30c3a}, !- Handle
  Perimeter_bot_ZN_3,                     !- Name
  {f5bcc0ca-b17a-4eb7-a3dd-e5ee025ada8a}, !- Space Type Name
  ,                                       !- Default Construction Set Name
  ,                                       !- Default Schedule Set Name
  0,                                      !- Direction of Relative North {deg}
  0,                                      !- X Origin {m}
  0,                                      !- Y Origin {m}
  0,                                      !- Z Origin {m}
  {f6f33872-336c-46c7-8c36-12e94081d7e7}, !- Building Story Name
  {76f40702-acf5-4449-8d5a-92bffb593ab7}, !- Thermal Zone Name
  Yes,                                    !- Part of Total Floor Area
  {6d44d05b-e675-4c14-8053-83afc5666fc1}; !- Design Specification Outdoor Air Object Name

OS:ThermostatSetpoint:DualSetpoint,
  {fc8266cc-c22b-4ec4-9822-8cd3297736ba}, !- Handle
  {1b240ee6-8d14-4841-981c-b94a8ec11b22}, !- Name
  {86ba2317-f75f-4adf-8031-7c5c06a6fb42}, !- Heating Setpoint Temperature Schedule Name
  {f7e2fc7f-caa7-4501-a2c1-9abeb7bc22c6}; !- Cooling Setpoint Temperature Schedule Name

OS:Schedule:Compact,
  {86ba2317-f75f-4adf-8031-7c5c06a6fb42}, !- Handle
  HTGSETP_SCH,                            !- Name
  {71953290-fbc0-470f-b297-79a543ae4047}, !- Schedule Type Limits Name
  Through: 12/31,                         !- Field 1
  For: Weekdays,                          !- Field 2
  Until: 06:00,                           !- Field 3
  15.6,                                   !- Field 4
  Until: 22:00,                           !- Field 5
  21.0,                                   !- Field 6
  Until: 24:00,                           !- Field 7
  15.6,                                   !- Field 8
  For SummerDesignDay,                    !- Field 9
  Until: 24:00,                           !- Field 10
  15.6,                                   !- Field 11
  For: Saturday,                          !- Field 12
  Until: 06:00,                           !- Field 13
  15.6,                                   !- Field 14
  Until: 18:00,                           !- Field 15
  21.0,                                   !- Field 16
  Until: 24:00,                           !- Field 17
  15.6,                                   !- Field 18
  For: WinterDesignDay,                   !- Field 19
  Until: 24:00,                           !- Field 20
  21.0,                                   !- Field 21
  For: AllOtherDays,                      !- Field 22
  Until: 24:00,                           !- Field 23
  15.6;                                   !- Field 24

OS:ScheduleTypeLimits,
  {71953290-fbc0-470f-b297-79a543ae4047}, !- Handle
  Temperature,                            !- Name
  -60,                                    !- Lower Limit Value {BasedOnField A4}
  200,                                    !- Upper Limit Value {BasedOnField A4}
  CONTINUOUS,                             !- Numeric Type
  Temperature;                            !- Unit Type

OS:Schedule:Compact,
  {f7e2fc7f-caa7-4501-a2c1-9abeb7bc22c6}, !- Handle
  CLGSETP_SCH,                            !- Name
  {71953290-fbc0-470f-b297-79a543ae4047}, !- Schedule Type Limits Name
  Through: 12/31,                         !- Field 1
  For: Weekdays SummerDesignDay,          !- Field 2
  Until: 06:00,                           !- Field 3
  26.7,                                   !- Field 4
  Until: 22:00,                           !- Field 5
  24.0,                                   !- Field 6
  Until: 24:00,                           !- Field 7
  26.7,                                   !- Field 8
  For: Saturday,                          !- Field 9
  Until: 06:00,                           !- Field 10
  26.7,                                   !- Field 11
  Until: 18:00,                           !- Field 12
  24.0,                                   !- Field 13
  Until: 24:00,                           !- Field 14
  26.7,                                   !- Field 15
  For WinterDesignDay,                    !- Field 16
  Until: 24:00,                           !- Field 17
  26.7,                                   !- Field 18
  For: AllOtherDays,                      !- Field 19
  Until: 24:00,                           !- Field 20
  26.7;                                   !- Field 21

OS:People:Definition,
  {a2a04b47-90c2-428e-bf89-b200bc9d5db9}, !- Handle
  Core_top People Definition,             !- Name
  Area/Person,                            !- Number of People Calculation Method
  ,                                       !- Number of People {people}
  ,                                       !- People per Space Floor Area {person/m2}
  18.58,                                  !- Space Floor Area per Person {m2/person}
  0.3,                                    !- Fraction Radiant
  ,                                       !- Sensible Heat Fraction
  ,                                       !- Carbon Dioxide Generation Rate {m3/s-W}
  No,                                     !- Enable ASHRAE 55 Comfort Warnings
  ZoneAveraged;                           !- Mean Radiant Temperature Calculation Type

OS:People,
  {0c00b5aa-0eee-4176-9ae2-cfc3675a0210}, !- Handle
  Core_top People,                        !- Name
  {a2a04b47-90c2-428e-bf89-b200bc9d5db9}, !- People Definition Name
  {55c9fd6f-ba10-4222-bae7-7802db650e89}, !- Space or SpaceType Name
  {e120599b-5e36-4340-a8b9-2674c9edfd81}, !- Number of People Schedule Name
  {51505249-f48e-45e2-9eab-862895ca4048}, !- Activity Level Schedule Name
  ,                                       !- Surface Name/Angle Factor List Name
  {dfd172f6-7525-4e3e-a1f1-d2bf0a87a419}; !- Work Efficiency Schedule Name

OS:Space,
  {55c9fd6f-ba10-4222-bae7-7802db650e89}, !- Handle
  Core_top,                               !- Name
  {f5bcc0ca-b17a-4eb7-a3dd-e5ee025ada8a}, !- Space Type Name
  ,                                       !- Default Construction Set Name
  ,                                       !- Default Schedule Set Name
  0,                                      !- Direction of Relative North {deg}
  0,                                      !- X Origin {m}
  0,                                      !- Y Origin {m}
  0,                                      !- Z Origin {m}
  {f6f33872-336c-46c7-8c36-12e94081d7e7}, !- Building Story Name
  {2f2f09b2-2af0-4b78-b69d-a84f14d05417}, !- Thermal Zone Name
  Yes,                                    !- Part of Total Floor Area
  {2b31143d-d01f-4605-b939-84976da74129}; !- Design Specification Outdoor Air Object Name

OS:ThermostatSetpoint:DualSetpoint,
  {4a40e462-f4fc-4de6-9789-ba2559f6cd16}, !- Handle
  {baf0bbd1-8139-40eb-ae10-4ad4c25a7dba}, !- Name
  {86ba2317-f75f-4adf-8031-7c5c06a6fb42}, !- Heating Setpoint Temperature Schedule Name
  {f7e2fc7f-caa7-4501-a2c1-9abeb7bc22c6}; !- Cooling Setpoint Temperature Schedule Name

OS:Schedule:Compact,
  {e120599b-5e36-4340-a8b9-2674c9edfd81}, !- Handle
  BLDG_OCC_SCH,                           !- Name
  {043ac042-0e42-4f92-89bf-a99fe8f50b0e}, !- Schedule Type Limits Name
  Through: 12/31,                         !- Field 1
  For: SummerDesignDay,                   !- Field 2
  Until: 06:00,                           !- Field 3
  0.0,                                    !- Field 4
  Until: 22:00,                           !- Field 5
  1.0,                                    !- Field 6
  Until: 24:00,                           !- Field 7
  0.05,                                   !- Field 8
  For: Weekdays,                          !- Field 9
  Until: 06:00,                           !- Field 10
  0.0,                                    !- Field 11
  Until: 07:00,                           !- Field 12
  0.1,                                    !- Field 13
  Until: 08:00,                           !- Field 14
  0.2,                                    !- Field 15
  Until: 12:00,                           !- Field 16
  0.95,                                   !- Field 17
  Until: 13:00,                           !- Field 18
  0.5,                                    !- Field 19
  Until: 17:00,                           !- Field 20
  0.95,                                   !- Field 21
  Until: 18:00,                           !- Field 22
  0.7,                                    !- Field 23
  Until: 20:00,                           !- Field 24
  0.4,                                    !- Field 25
  Until: 22:00,                           !- Field 26
  0.1,                                    !- Field 27
  Until: 24:00,                           !- Field 28
  0.05,                                   !- Field 29
  For: Saturday,                          !- Field 30
  Until: 06:00,                           !- Field 31
  0.0,                                    !- Field 32
  Until: 08:00,                           !- Field 33
  0.1,                                    !- Field 34
  Until: 14:00,                           !- Field 35
  0.5,                                    !- Field 36
  Until: 17:00,                           !- Field 37
  0.1,                                    !- Field 38
  Until: 24:00,                           !- Field 39
  0.0,                                    !- Field 40
  For: AllOtherDays,                      !- Field 41
  Until: 24:00,                           !- Field 42
  0.0;                                    !- Field 43

OS:ScheduleTypeLimits,
  {043ac042-0e42-4f92-89bf-a99fe8f50b0e}, !- Handle
  Fraction,                               !- Name
  0,                                      !- Lower Limit Value {BasedOnField A4}
  1,                                      !- Upper Limit Value {BasedOnField A4}
  CONTINUOUS;                             !- Numeric Type

OS:Schedule:Compact,
  {51505249-f48e-45e2-9eab-862895ca4048}, !- Handle
  ACTIVITY_SCH,                           !- Name
  {a97961f7-a7b1-413f-b3d2-28d24ed38393}, !- Schedule Type Limits Name
  Through: 12/31,                         !- Field 1
  For: AllDays,                           !- Field 2
  Until: 24:00,                           !- Field 3
  120;                                    !- Field 4

OS:ScheduleTypeLimits,
  {707a574f-3284-46c3-b2a9-fadaf51518f1}, !- Handle
  {7bc0081c-3758-4854-82cd-13a50a9faac0}; !- Name

OS:ScheduleTypeLimits,
  {a97961f7-a7b1-413f-b3d2-28d24ed38393}, !- Handle
  ActivityLevel,                          !- Name
  0,                                      !- Lower Limit Value {BasedOnField A4}
  ,                                       !- Upper Limit Value {BasedOnField A4}
  Continuous,                             !- Numeric Type
  ActivityLevel;                          !- Unit Type

OS:Schedule:Compact,
  {dfd172f6-7525-4e3e-a1f1-d2bf0a87a419}, !- Handle
  WORK_EFF_SCH,                           !- Name
  {043ac042-0e42-4f92-89bf-a99fe8f50b0e}, !- Schedule Type Limits Name
  Through: 12/31,                         !- Field 1
  For: AllDays,                           !- Field 2
  Until: 24:00,                           !- Field 3
  0.0;                                    !- Field 4

OS:Surface,
  {52ae130b-36de-4aff-bf64-5d6769a3055a}, !- Handle
  Perimeter_bot_ZN_4_Wall_South,          !- Name
  Wall,                                   !- Surface Type
  {8f60d1c0-ed16-4e12-8dbf-4c1eca46d1b5}, !- Construction Name
  {a5747782-4ee8-45eb-8d61-b7e887efc817}, !- Space Name
  Surface,                                !- Outside Boundary Condition
  {9d8fc6a5-8d9f-4b51-9bc4-398d531f0e38}, !- Outside Boundary Condition Object
  NoSun,                                  !- Sun Exposure
  NoWind,                                 !- Wind Exposure
  ,                                       !- View Factor to Ground
  ,                                       !- Number of Vertices
  0, 0, 2.744,                            !- X,Y,Z Vertex 1 {m}
  0, 0, 0,                                !- X,Y,Z Vertex 2 {m}
  4.5732, 4.5732, 0,                      !- X,Y,Z Vertex 3 {m}
  4.5732, 4.5732, 2.744;                  !- X,Y,Z Vertex 4 {m}

OS:Construction,
  {8f60d1c0-ed16-4e12-8dbf-4c1eca46d1b5}, !- Handle
  int-walls,                              !- Name
  ,                                       !- Surface Rendering Name
  {7d678f6e-3cb8-40c6-94e1-a446253c7a91}, !- Layer 1
  {7d678f6e-3cb8-40c6-94e1-a446253c7a91}; !- Layer 2

OS:Space,
  {a5747782-4ee8-45eb-8d61-b7e887efc817}, !- Handle
  Perimeter_bot_ZN_4,                     !- Name
  {f5bcc0ca-b17a-4eb7-a3dd-e5ee025ada8a}, !- Space Type Name
  ,                                       !- Default Construction Set Name
  ,                                       !- Default Schedule Set Name
  0,                                      !- Direction of Relative North {deg}
  0,                                      !- X Origin {m}
  0,                                      !- Y Origin {m}
  0,                                      !- Z Origin {m}
  {f6f33872-336c-46c7-8c36-12e94081d7e7}, !- Building Story Name
  {c1e9767c-df96-4239-9301-c1a6e15cac08}, !- Thermal Zone Name
  Yes,                                    !- Part of Total Floor Area
  {e1dd3fad-a3b1-4567-bf2e-f23633491652}; !- Design Specification Outdoor Air Object Name

OS:ThermostatSetpoint:DualSetpoint,
  {866b8d19-af33-4c2c-8e04-683a4cd9ab6c}, !- Handle
  {9806041e-57b2-4fed-ad64-320e8ba8393b}, !- Name
  {86ba2317-f75f-4adf-8031-7c5c06a6fb42}, !- Heating Setpoint Temperature Schedule Name
  {f7e2fc7f-caa7-4501-a2c1-9abeb7bc22c6}; !- Cooling Setpoint Temperature Schedule Name

OS:Surface,
  {38b4cdf1-1ade-4dbf-b1d2-b78bbb0924a6}, !- Handle
  MidFloor_Plenum_Floor_1,                !- Name
  Floor,                                  !- Surface Type
  {293dc24b-75eb-4f17-ad57-24b1a63f9bda}, !- Construction Name
  {2898ca1d-1500-4c24-9b0e-b9c655b520a3}, !- Space Name
  Surface,                                !- Outside Boundary Condition
  {19f1173d-8d93-4169-af42-2191243de80c}, !- Outside Boundary Condition Object
  NoSun,                                  !- Sun Exposure
  NoWind,                                 !- Wind Exposure
  ,                                       !- View Factor to Ground
  ,                                       !- Number of Vertices
  68.534, 4.5732, 22.56,                  !- X,Y,Z Vertex 1 {m}
  73.1072, 0, 22.56,                      !- X,Y,Z Vertex 2 {m}
  0, 0, 22.56,                            !- X,Y,Z Vertex 3 {m}
  4.5732, 4.5732, 22.56;                  !- X,Y,Z Vertex 4 {m}

OS:Construction,
  {293dc24b-75eb-4f17-ad57-24b1a63f9bda}, !- Handle
  DropCeiling,                            !- Name
  ,                                       !- Surface Rendering Name
  {017d74a4-882e-4ec8-a079-4c47976f725a}; !- Layer 1

OS:Material,
  {017d74a4-882e-4ec8-a079-4c47976f725a}, !- Handle
  Std AC02,                               !- Name
  MediumSmooth,                           !- Roughness
  0.0127,                                 !- Thickness {m}
  0.057,                                  !- Conductivity {W/m-K}
  288,                                    !- Density {kg/m3}
  1339,                                   !- Specific Heat {J/kg-K}
  0.9,                                    !- Thermal Absorptance
  0.7,                                    !- Solar Absorptance
  0.2;                                    !- Visible Absorptance

OS:Space,
  {2898ca1d-1500-4c24-9b0e-b9c655b520a3}, !- Handle
  MidFloor_Plenum,                        !- Name
  {f5bcc0ca-b17a-4eb7-a3dd-e5ee025ada8a}, !- Space Type Name
  ,                                       !- Default Construction Set Name
  ,                                       !- Default Schedule Set Name
  0,                                      !- Direction of Relative North {deg}
  0,                                      !- X Origin {m}
  0,                                      !- Y Origin {m}
  0,                                      !- Z Origin {m}
  {f6f33872-336c-46c7-8c36-12e94081d7e7}, !- Building Story Name
  {76f40702-acf5-4449-8d5a-92bffb593ab7}, !- Thermal Zone Name
  No;                                     !- Part of Total Floor Area

OS:Surface,
  {a90e2013-5b96-4b94-a6a4-641329971b57}, !- Handle
  Basement_Ceiling_1,                     !- Name
  RoofCeiling,                            !- Surface Type
  {56ce31da-f6c5-4da4-afb2-fafcfb9983e5}, !- Construction Name
  {24f095b1-698b-4dce-8fc0-070bc2396848}, !- Space Name
  Surface,                                !- Outside Boundary Condition
  {2013418e-622b-44c4-855a-1f6bebb2ee18}, !- Outside Boundary Condition Object
  NoSun,                                  !- Sun Exposure
  NoWind,                                 !- Wind Exposure
  ,                                       !- View Factor to Ground
  ,                                       !- Number of Vertices
  73.1072, 0, 0,                          !- X,Y,Z Vertex 1 {m}
  68.534, 4.5732, 0,                      !- X,Y,Z Vertex 2 {m}
  4.5732, 4.5732, 0,                      !- X,Y,Z Vertex 3 {m}
  0, 0, 0;                                !- X,Y,Z Vertex 4 {m}

OS:Construction,
  {56ce31da-f6c5-4da4-afb2-fafcfb9983e5}, !- Handle
  INT-FLOOR-UNDERSIDE,                    !- Name
  ,                                       !- Surface Rendering Name
  {13e86585-14ff-4f86-84d6-010cb4115b76}, !- Layer 1
  {fbf2a2c3-a0eb-4313-8d9b-51747458e576}; !- Layer 2

OS:Material:NoMass,
  {13e86585-14ff-4f86-84d6-010cb4115b76}, !- Handle
  CP02 CARPET PAD,                        !- Name
  VeryRough,                              !- Roughness
  0.2165,                                 !- Thermal Resistance {m2-K/W}
  0.9,                                    !- Thermal Absorptance
  0.7,                                    !- Solar Absorptance
  0.8;                                    !- Visible Absorptance

OS:Material,
  {fbf2a2c3-a0eb-4313-8d9b-51747458e576}, !- Handle
  MAT-CC05 4 HW CONCRETE,                 !- Name
  Rough,                                  !- Roughness
  0.1016,                                 !- Thickness {m}
  1.311,                                  !- Conductivity {W/m-K}
  2240,                                   !- Density {kg/m3}
  836.8,                                  !- Specific Heat {J/kg-K}
  0.9,                                    !- Thermal Absorptance
  0.7,                                    !- Solar Absorptance
  0.7;                                    !- Visible Absorptance

OS:Space,
  {24f095b1-698b-4dce-8fc0-070bc2396848}, !- Handle
  Basement,                               !- Name
  {f2b3bb9a-eef0-4235-9dc6-2dd08ecdf4c6}, !- Space Type Name
  ,                                       !- Default Construction Set Name
  ,                                       !- Default Schedule Set Name
  0,                                      !- Direction of Relative North {deg}
  0,                                      !- X Origin {m}
  0.04,                                   !- Y Origin {m}
  0.2,                                    !- Z Origin {m}
  {c746920d-626c-48ba-9b26-426784705b6b}, !- Building Story Name
  {d342da0d-77b2-4585-b4f7-80ec2131cc79}, !- Thermal Zone Name
  Yes,                                    !- Part of Total Floor Area
  {4da339b4-c8a0-4c1b-a574-cb1a3c3b29f3}; !- Design Specification Outdoor Air Object Name

OS:ThermostatSetpoint:DualSetpoint,
  {0e53a9fc-86cc-4543-9e04-5ce0ee8ffea4}, !- Handle
  {8cc62b14-e31f-4fce-8cc9-2d0b58185786}, !- Name
  {86ba2317-f75f-4adf-8031-7c5c06a6fb42}, !- Heating Setpoint Temperature Schedule Name
  {f7e2fc7f-caa7-4501-a2c1-9abeb7bc22c6}; !- Cooling Setpoint Temperature Schedule Name

OS:HeatBalanceAlgorithm,
  {10ad49ff-c964-4ee0-9d2b-1cbcf17c4558}, !- Handle
  ConductionTransferFunction,             !- Algorithm
  200;                                    !- Surface Temperature Upper Limit {C}

OS:Surface,
  {b06dfc93-853e-4327-b9d3-426254535caa}, !- Handle
  Basement_Wall_South,                    !- Name
  Wall,                                   !- Surface Type
  {df3c78ea-43e6-417a-aefb-580054961d11}, !- Construction Name
  {24f095b1-698b-4dce-8fc0-070bc2396848}, !- Space Name
  Ground,                                 !- Outside Boundary Condition
  ,                                       !- Outside Boundary Condition Object
  NoSun,                                  !- Sun Exposure
  NoWind,                                 !- Wind Exposure
  ,                                       !- View Factor to Ground
  ,                                       !- Number of Vertices
  0, 0, 0,                                !- X,Y,Z Vertex 1 {m}
  0, 0, -2.439,                           !- X,Y,Z Vertex 2 {m}
  73.1072, 0, -2.439,                     !- X,Y,Z Vertex 3 {m}
  73.1072, 0, 0;                          !- X,Y,Z Vertex 4 {m}

OS:Construction,
  {df3c78ea-43e6-417a-aefb-580054961d11}, !- Handle
  Underground Wall Non-res,               !- Name
  ,                                       !- Surface Rendering Name
  {627973cb-a3db-481a-949c-2812490739ee}, !- Layer 1
  {3d858e40-191d-4da8-8d55-174b8bb10412}; !- Layer 2

OS:Material,
  {3d858e40-191d-4da8-8d55-174b8bb10412}, !- Handle
  UGWall NonRes Insulation,               !- Name
  MediumRough,                            !- Roughness
  0.0001,                                 !- Thickness {m}
  0.049,                                  !- Conductivity {W/m-K}
  265,                                    !- Density {kg/m3}
  836.8,                                  !- Specific Heat {J/kg-K}
  0.9,                                    !- Thermal Absorptance
  0.7,                                    !- Solar Absorptance
  0.7;                                    !- Visible Absorptance

OS:Surface,
  {36474714-34a2-4ef2-bb37-fed0d276318f}, !- Handle
  Perimeter_bot_ZN_2_Wall_South,          !- Name
  Wall,                                   !- Surface Type
  {8f60d1c0-ed16-4e12-8dbf-4c1eca46d1b5}, !- Construction Name
  {8ec6cb56-1b70-41b8-90b4-d00aab39bce9}, !- Space Name
  Surface,                                !- Outside Boundary Condition
  {de076476-1617-459b-868e-645d6693ab8e}, !- Outside Boundary Condition Object
  NoSun,                                  !- Sun Exposure
  NoWind,                                 !- Wind Exposure
  ,                                       !- View Factor to Ground
  ,                                       !- Number of Vertices
  68.534, 4.5732, 2.744,                  !- X,Y,Z Vertex 1 {m}
  68.534, 4.5732, 0,                      !- X,Y,Z Vertex 2 {m}
  73.1072, 0, 0,                          !- X,Y,Z Vertex 3 {m}
  73.1072, 0, 2.744;                      !- X,Y,Z Vertex 4 {m}

OS:Space,
  {8ec6cb56-1b70-41b8-90b4-d00aab39bce9}, !- Handle
  Perimeter_bot_ZN_2,                     !- Name
  {f5bcc0ca-b17a-4eb7-a3dd-e5ee025ada8a}, !- Space Type Name
  ,                                       !- Default Construction Set Name
  ,                                       !- Default Schedule Set Name
  0,                                      !- Direction of Relative North {deg}
  0,                                      !- X Origin {m}
  0,                                      !- Y Origin {m}
  0,                                      !- Z Origin {m}
  {f6f33872-336c-46c7-8c36-12e94081d7e7}, !- Building Story Name