
OS:Version,
  {d8dce95f-e875-4f1c-a342-f2c68fede7f7}, !- Handle
  1.8.5;                                  !- Version Identifier

OS:Site,
  {f6fc04b8-fd15-4dbe-88d5-67862d8b1e8e}, !- Handle
  USA IL-CHICAGO-OHARE,                   !- Name
  41.77,                                  !- Latitude {deg}
  -87.75,                                 !- Longitude {deg}
  -6,                                     !- Time Zone {hr}
  190,                                    !- Elevation {m}
  City;                                   !- Terrain

OS:SimulationControl,
  {40ee4d9c-be16-4fd8-abbe-2159ca88941a}, !- Handle
  Yes,                                    !- Do Zone Sizing Calculation
  Yes,                                    !- Do System Sizing Calculation
  Yes,                                    !- Do Plant Sizing Calculation
  No,                                     !- Run Simulation for Sizing Periods
  Yes,                                    !- Run Simulation for Weather File Run Periods
  0.04,                                   !- Loads Convergence Tolerance Value
  0.2,                                    !- Temperature Convergence Tolerance Value {deltaC}
  FullInteriorAndExterior,                !- Solar Distribution
  25,                                     !- Maximum Number of Warmup Days
  6;                                      !- Minimum Number of Warmup Days

OS:Surface,
  {33883000-8ef2-4017-9d43-8848a3a51f6e}, !- Handle
  Perimeter_mid_ZN_3_Wall_South,          !- Name
  Wall,                                   !- Surface Type
  {1d7a0230-de97-4fcd-aa04-a723d1e5839c}, !- Construction Name
  {7bd638d9-684a-4301-ba0a-11fa4b3d8dc9}, !- Space Name
  Surface,                                !- Outside Boundary Condition
  {7ff3d1ba-96ea-4658-8a18-e9572fac46a4}, !- Outside Boundary Condition Object
  NoSun,                                  !- Sun Exposure
  NoWind,                                 !- Wind Exposure
  ,                                       !- View Factor to Ground
  ,                                       !- Number of Vertices
  4.5732, 44.165, 22.56,                  !- X,Y,Z Vertex 1 {m}
  4.5732, 44.165, 19.816,                 !- X,Y,Z Vertex 2 {m}
  68.534, 44.165, 19.816,                 !- X,Y,Z Vertex 3 {m}
  68.534, 44.165, 22.56;                  !- X,Y,Z Vertex 4 {m}

OS:Construction,
  {1d7a0230-de97-4fcd-aa04-a723d1e5839c}, !- Handle
  int-walls,                              !- Name
  ,                                       !- Surface Rendering Name
  {4d4248f7-dcc5-4dee-a7c1-bed793222edb}, !- Layer 1
  {4d4248f7-dcc5-4dee-a7c1-bed793222edb}; !- Layer 2

OS:Material,
  {4d4248f7-dcc5-4dee-a7c1-bed793222edb}, !- Handle
  1/2IN Gypsum,                           !- Name
  Smooth,                                 !- Roughness
  0.0127,                                 !- Thickness {m}
  0.16,                                   !- Conductivity {W/m-K}
  784.9,                                  !- Density {kg/m3}
  830,                                    !- Specific Heat {J/kg-K}
  0.9,                                    !- Thermal Absorptance
  0.92,                                   !- Solar Absorptance
  0.92;                                   !- Visible Absorptance

OS:Space,
  {7bd638d9-684a-4301-ba0a-11fa4b3d8dc9}, !- Handle
  Perimeter_mid_ZN_3,                     !- Name
  {d399b5d0-0a44-44d4-9dbc-ecf844db6ee9}, !- Space Type Name
  ,                                       !- Default Construction Set Name
  ,                                       !- Default Schedule Set Name
  0,                                      !- Direction of Relative North {deg}
  0,                                      !- X Origin {m}
  0,                                      !- Y Origin {m}
  0,                                      !- Z Origin {m}
  {be85f68e-d1e2-4349-a7b6-eeb49960d7db}, !- Building Story Name
  {be0d4d98-b895-4f81-a0d2-e9c518ec2095}, !- Thermal Zone Name
  Yes,                                    !- Part of Total Floor Area
  {356e667a-bf6a-404f-b8b0-cd2167ab68ba}; !- Design Specification Outdoor Air Object Name

OS:Schedule:Compact,
  {30ec416c-1e3b-4e39-9121-5fe0014d2086}, !- Handle
  HTGSETP_SCH,                            !- Name
  {70508d16-d557-4374-8798-8eaab33fa188}, !- Schedule Type Limits Name
  Through: 12/31,                         !- Field 1
  For: Weekdays,                          !- Field 2
  Until: 06:00,                           !- Field 3
  15.6,                                   !- Field 4
  Until: 22:00,                           !- Field 5
  21.0,                                   !- Field 6
  Until: 24:00,                           !- Field 7
  15.6,                                   !- Field 8
  For SummerDesignDay,                    !- Field 9
  Until: 24:00,                           !- Field 10
  15.6,                                   !- Field 11
  For: Saturday,                          !- Field 12
  Until: 06:00,                           !- Field 13
  15.6,                                   !- Field 14
  Until: 18:00,                           !- Field 15
  21.0,                                   !- Field 16
  Until: 24:00,                           !- Field 17
  15.6,                                   !- Field 18
  For: WinterDesignDay,                   !- Field 19
  Until: 24:00,                           !- Field 20
  21.0,                                   !- Field 21
  For: AllOtherDays,                      !- Field 22
  Until: 24:00,                           !- Field 23
  15.6;                                   !- Field 24

OS:ScheduleTypeLimits,
  {70508d16-d557-4374-8798-8eaab33fa188}, !- Handle
  Temperature,                            !- Name
  -60,                                    !- Lower Limit Value {BasedOnField A4}
  200,                                    !- Upper Limit Value {BasedOnField A4}
  CONTINUOUS,                             !- Numeric Type
  Temperature;                            !- Unit Type

OS:Schedule:Compact,
  {e6c42981-515b-4732-a5de-31ae466b321c}, !- Handle
  CLGSETP_SCH,                            !- Name
  {70508d16-d557-4374-8798-8eaab33fa188}, !- Schedule Type Limits Name
  Through: 12/31,                         !- Field 1
  For: Weekdays SummerDesignDay,          !- Field 2
  Until: 06:00,                           !- Field 3
  26.7,                                   !- Field 4
  Until: 22:00,                           !- Field 5
  24.0,                                   !- Field 6
  Until: 24:00,                           !- Field 7
  26.7,                                   !- Field 8
  For: Saturday,                          !- Field 9
  Until: 06:00,                           !- Field 10
  26.7,                                   !- Field 11
  Until: 18:00,                           !- Field 12
  24.0,                                   !- Field 13
  Until: 24:00,                           !- Field 14
  26.7,                                   !- Field 15
  For WinterDesignDay,                    !- Field 16
  Until: 24:00,                           !- Field 17
  26.7,                                   !- Field 18
  For: AllOtherDays,                      !- Field 19
  Until: 24:00,                           !- Field 20
  26.7;                                   !- Field 21

OS:ElectricEquipment:Definition,
  {cd4f5895-d1ac-46b3-afab-0f8a10fad904}, !- Handle
  Perimeter_bot_ZN_4_PlugMisc_Equip Definition, !- Name
  Watts/Area,                             !- Design Level Calculation Method
  ,                                       !- Design Level {W}
  10.76,                                  !- Watts per Space Floor Area {W/m2}
  ,                                       !- Watts per Person {W/person}
  0,                                      !- Fraction Latent
  0.5,                                    !- Fraction Radiant
  0;                                      !- Fraction Lost

OS:ElectricEquipment,
  {cce123b2-7b0c-448c-96ef-982fff8a799c}, !- Handle
  Perimeter_bot_ZN_4_PlugMisc_Equip,      !- Name
  {cd4f5895-d1ac-46b3-afab-0f8a10fad904}, !- Electric Equipment Definition Name
  {57cf36ff-0399-48c4-8079-82fee6ef7bf2}, !- Space or SpaceType Name
  {9480199e-59b3-4678-a512-04218c71850d}, !- Schedule Name
  ,                                       !- Multiplier
  General;                                !- End-Use Subcategory

OS:Space,
  {57cf36ff-0399-48c4-8079-82fee6ef7bf2}, !- Handle
  Perimeter_bot_ZN_4,                     !- Name
  {d399b5d0-0a44-44d4-9dbc-ecf844db6ee9}, !- Space Type Name
  ,                                       !- Default Construction Set Name
  ,                                       !- Default Schedule Set Name
  0,                                      !- Direction of Relative North {deg}
  0,                                      !- X Origin {m}
  0,                                      !- Y Origin {m}
  0,                                      !- Z Origin {m}
  {be85f68e-d1e2-4349-a7b6-eeb49960d7db}, !- Building Story Name
  {94e59680-7fc5-4542-908c-4219f2f6fd5d}, !- Thermal Zone Name
  Yes,                                    !- Part of Total Floor Area
  {387ba2cf-9e5b-4dc0-b109-eb1af786a882}; !- Design Specification Outdoor Air Object Name

OS:Schedule:Compact,
  {9480199e-59b3-4678-a512-04218c71850d}, !- Handle
  BLDG_EQUIP_SCH,                         !- Name
  {afbeed0f-c15c-442f-b2b4-9d21ceb9798b}, !- Schedule Type Limits Name
  Through: 12/31,                         !- Field 1
  For: Weekdays,                          !- Field 2
  Until: 08:00,                           !- Field 3
  0.40,                                   !- Field 4
  Until: 12:00,                           !- Field 5
  0.90,                                   !- Field 6
  Until: 13:00,                           !- Field 7
  0.80,                                   !- Field 8
  Until: 17:00,                           !- Field 9
  0.90,                                   !- Field 10
  Until: 18:00,                           !- Field 11
  0.80,                                   !- Field 12
  Until: 20:00,                           !- Field 13
  0.60,                                   !- Field 14
  Until: 22:00,                           !- Field 15
  0.50,                                   !- Field 16
  Until: 24:00,                           !- Field 17
  0.40,                                   !- Field 18
  For: Saturday,                          !- Field 19
  Until: 06:00,                           !- Field 20
  0.30,                                   !- Field 21
  Until: 08:00,                           !- Field 22
  0.4,                                    !- Field 23
  Until: 14:00,                           !- Field 24
  0.5,                                    !- Field 25
  Until: 17:00,                           !- Field 26
  0.35,                                   !- Field 27
  Until: 24:00,                           !- Field 28
  0.30,                                   !- Field 29
  For: SummerDesignDay,                   !- Field 30
  Until: 24:00,                           !- Field 31
  1.0,                                    !- Field 32
  For: WinterDesignDay,                   !- Field 33
  Until: 24:00,                           !- Field 34
  0.0,                                    !- Field 35
  For: AllOtherDays,                      !- Field 36
  Until: 24:00,                           !- Field 37
  0.30;                                   !- Field 38

OS:ScheduleTypeLimits,
  {afbeed0f-c15c-442f-b2b4-9d21ceb9798b}, !- Handle
  Fraction,                               !- Name
  0,                                      !- Lower Limit Value {BasedOnField A4}
  1,                                      !- Upper Limit Value {BasedOnField A4}
  CONTINUOUS;                             !- Numeric Type

OS:People:Definition,
  {9810ff5c-b78a-4386-acf1-ecf0c35d162d}, !- Handle
  Perimeter_bot_ZN_3 People Definition,   !- Name
  Area/Person,                            !- Number of People Calculation Method
  ,                                       !- Number of People {people}
  ,                                       !- People per Space Floor Area {person/m2}
  18.58,                                  !- Space Floor Area per Person {m2/person}
  0.3,                                    !- Fraction Radiant
  ,                                       !- Sensible Heat Fraction
  ,                                       !- Carbon Dioxide Generation Rate {m3/s-W}
  No,                                     !- Enable ASHRAE 55 Comfort Warnings
  ZoneAveraged;                           !- Mean Radiant Temperature Calculation Type

OS:People,
  {23e77f85-a8f6-4c07-bd9d-1ff447f51a68}, !- Handle
  Perimeter_bot_ZN_3 People,              !- Name
  {9810ff5c-b78a-4386-acf1-ecf0c35d162d}, !- People Definition Name
  {03d9fa3a-e0ec-4456-89cb-5e0c014f0ee6}, !- Space or SpaceType Name
  {acae1c61-6d64-4f21-a38c-2a9beb1dec26}, !- Number of People Schedule Name
  {625b1e41-01a1-4dbe-9282-5cc816ed520a}, !- Activity Level Schedule Name
  ,                                       !- Surface Name/Angle Factor List Name
  {ac11b963-794e-4d5e-8b8d-915fe81464b8}; !- Work Efficiency Schedule Name

OS:Space,
  {03d9fa3a-e0ec-4456-89cb-5e0c014f0ee6}, !- Handle
  Perimeter_bot_ZN_3,                     !- Name
  {d399b5d0-0a44-44d4-9dbc-ecf844db6ee9}, !- Space Type Name
  ,                                       !- Default Construction Set Name
  ,                                       !- Default Schedule Set Name
  0,                                      !- Direction of Relative North {deg}
  0,                                      !- X Origin {m}
  0,                                      !- Y Origin {m}
  0,                                      !- Z Origin {m}
  {be85f68e-d1e2-4349-a7b6-eeb49960d7db}, !- Building Story Name
  {be0d4d98-b895-4f81-a0d2-e9c518ec2095}, !- Thermal Zone Name
  Yes,                                    !- Part of Total Floor Area
  {e534b1a2-d4d2-49ec-84b5-46e07d767086}; !- Design Specification Outdoor Air Object Name

OS:Schedule:Compact,
  {acae1c61-6d64-4f21-a38c-2a9beb1dec26}, !- Handle
  BLDG_OCC_SCH,                           !- Name
  {afbeed0f-c15c-442f-b2b4-9d21ceb9798b}, !- Schedule Type Limits Name
  Through: 12/31,                         !- Field 1
  For: SummerDesignDay,                   !- Field 2
  Until: 06:00,                           !- Field 3
  0.0,                                    !- Field 4
  Until: 22:00,                           !- Field 5
  1.0,                                    !- Field 6
  Until: 24:00,                           !- Field 7
  0.05,                                   !- Field 8
  For: Weekdays,                          !- Field 9
  Until: 06:00,                           !- Field 10
  0.0,                                    !- Field 11
  Until: 07:00,                           !- Field 12
  0.1,                                    !- Field 13
  Until: 08:00,                           !- Field 14
  0.2,                                    !- Field 15
  Until: 12:00,                           !- Field 16
  0.95,                                   !- Field 17
  Until: 13:00,                           !- Field 18
  0.5,                                    !- Field 19
  Until: 17:00,                           !- Field 20
  0.95,                                   !- Field 21
  Until: 18:00,                           !- Field 22
  0.7,                                    !- Field 23
  Until: 20:00,                           !- Field 24
  0.4,                                    !- Field 25
  Until: 22:00,                           !- Field 26
  0.1,                                    !- Field 27
  Until: 24:00,                           !- Field 28
  0.05,                                   !- Field 29
  For: Saturday,                          !- Field 30
  Until: 06:00,                           !- Field 31
  0.0,                                    !- Field 32
  Until: 08:00,                           !- Field 33
  0.1,                                    !- Field 34
  Until: 14:00,                           !- Field 35
  0.5,                                    !- Field 36
  Until: 17:00,                           !- Field 37
  0.1,                                    !- Field 38
  Until: 24:00,                           !- Field 39
  0.0,                                    !- Field 40
  For: AllOtherDays,                      !- Field 41
  Until: 24:00,                           !- Field 42
  0.0;                                    !- Field 43

OS:Schedule:Compact,
  {625b1e41-01a1-4dbe-9282-5cc816ed520a}, !- Handle
  ACTIVITY_SCH,                           !- Name
  {2b5aa361-2e2c-4f2e-baca-75e467eb0cdd}, !- Schedule Type Limits Name
  Through: 12/31,                         !- Field 1
  For: AllDays,                           !- Field 2
  Until: 24:00,                           !- Field 3
  120;                                    !- Field 4

OS:ScheduleTypeLimits,
  {c08217cd-5c26-4e63-ba26-2dd178eaac3a}, !- Handle
  {ca1b3464-85ca-4044-aace-f9f6b4d32b7f}; !- Name

OS:ScheduleTypeLimits,
  {2b5aa361-2e2c-4f2e-baca-75e467eb0cdd}, !- Handle
  ActivityLevel,                          !- Name
  0,                                      !- Lower Limit Value {BasedOnField A4}
  ,                                       !- Upper Limit Value {BasedOnField A4}
  Continuous,                             !- Numeric Type
  ActivityLevel;                          !- Unit Type

OS:Schedule:Compact,
  {ac11b963-794e-4d5e-8b8d-915fe81464b8}, !- Handle
  WORK_EFF_SCH,                           !- Name
  {afbeed0f-c15c-442f-b2b4-9d21ceb9798b}, !- Schedule Type Limits Name
  Through: 12/31,                         !- Field 1
  For: AllDays,                           !- Field 2
  Until: 24:00,                           !- Field 3
  0.0;                                    !- Field 4

OS:Surface,
  {3787d7a6-151d-4095-bf98-55fd643f74c4}, !- Handle
  Perimeter_top_ZN_2_Wall_North,          !- Name
  Wall,                                   !- Surface Type
  {1d7a0230-de97-4fcd-aa04-a723d1e5839c}, !- Construction Name
  {4f28f026-ccc8-484d-a47b-b48a680477ba}, !- Space Name
  Surface,                                !- Outside Boundary Condition
  {d2ae33b2-240b-49dd-a95f-f7c6c1ab0f8b}, !- Outside Boundary Condition Object
  NoSun,                                  !- Sun Exposure
  NoWind,                                 !- Wind Exposure
  ,                                       !- View Factor to Ground
  ,                                       !- Number of Vertices
  73.1072, 48.7381, 46.3392,              !- X,Y,Z Vertex 1 {m}
  73.1072, 48.7381, 43.5952,              !- X,Y,Z Vertex 2 {m}
  68.534, 44.165, 43.5952,                !- X,Y,Z Vertex 3 {m}
  68.534, 44.165, 46.3392;                !- X,Y,Z Vertex 4 {m}

OS:Space,
  {4f28f026-ccc8-484d-a47b-b48a680477ba}, !- Handle
  Perimeter_top_ZN_2,                     !- Name
  {d399b5d0-0a44-44d4-9dbc-ecf844db6ee9}, !- Space Type Name
  ,                                       !- Default Construction Set Name
  ,                                       !- Default Schedule Set Name
  0,                                      !- Direction of Relative North {deg}
  0,                                      !- X Origin {m}
  0,                                      !- Y Origin {m}
  0,                                      !- Z Origin {m}
  {be85f68e-d1e2-4349-a7b6-eeb49960d7db}, !- Building Story Name
  {c89aea2e-4a69-4f39-bc2d-c480d9bcb4a4}, !- Thermal Zone Name
  Yes,                                    !- Part of Total Floor Area
  {1d058867-51ae-4ee3-93b1-35cb19f13b32}; !- Design Specification Outdoor Air Object Name

OS:People:Definition,
  {349e2b73-c3cb-474b-85e0-43d887cf3d22}, !- Handle
  Basement People Definition,             !- Name
  Area/Person,                            !- Number of People Calculation Method
  ,                                       !- Number of People {people}
  ,                                       !- People per Space Floor Area {person/m2}
  37.16,                                  !- Space Floor Area per Person {m2/person}
  0.3,                                    !- Fraction Radiant
  ,                                       !- Sensible Heat Fraction
  ,                                       !- Carbon Dioxide Generation Rate {m3/s-W}
  No,                                     !- Enable ASHRAE 55 Comfort Warnings
  ZoneAveraged;                           !- Mean Radiant Temperature Calculation Type

OS:People,
  {a876d714-be02-4ab1-80f4-10f851fa8505}, !- Handle
  Basement People,                        !- Name
  {349e2b73-c3cb-474b-85e0-43d887cf3d22}, !- People Definition Name
  {efe782c6-6c7d-483b-aa6d-91af1de608be}, !- Space or SpaceType Name
  {acae1c61-6d64-4f21-a38c-2a9beb1dec26}, !- Number of People Schedule Name
  {625b1e41-01a1-4dbe-9282-5cc816ed520a}, !- Activity Level Schedule Name
  ,                                       !- Surface Name/Angle Factor List Name
  {ac11b963-794e-4d5e-8b8d-915fe81464b8}; !- Work Efficiency Schedule Name

OS:Space,
  {efe782c6-6c7d-483b-aa6d-91af1de608be}, !- Handle
  Basement,                               !- Name
  {de2b173c-9ba8-4917-b910-f14706e9a9cd}, !- Space Type Name
  ,                                       !- Default Construction Set Name
  ,                                       !- Default Schedule Set Name
  0,                                      !- Direction of Relative North {deg}
  0,                                      !- X Origin {m}
  0.04,                                   !- Y Origin {m}
  0.2,                                    !- Z Origin {m}
  {9ca77f21-f917-41ff-8340-989b89ccd297}, !- Building Story Name
  {153a89a5-5de8-49cb-a123-94e64f50262f}, !- Thermal Zone Name
  Yes,                                    !- Part of Total Floor Area
  {60777758-5f85-42a2-bdd7-53bdddff9e1f}; !- Design Specification Outdoor Air Object Name

OS:ThermostatSetpoint:DualSetpoint,
  {a0fed546-5f59-4cbc-bcae-5bac6f2462ab}, !- Handle
  {b2ed6163-cfdb-4d8e-bce8-b59cfaf9ea54}, !- Name
  {30ec416c-1e3b-4e39-9121-5fe0014d2086}, !- Heating Setpoint Temperature Schedule Name
  {e6c42981-515b-4732-a5de-31ae466b321c}; !- Cooling Setpoint Temperature Schedule Name

OS:Surface,
  {a6a3c5f3-8c31-40c1-9daa-8ebe7f0ddadc}, !- Handle
  Perimeter_bot_ZN_2_Wall_West,           !- Name
  Wall,                                   !- Surface Type
  {1d7a0230-de97-4fcd-aa04-a723d1e5839c}, !- Construction Name
  {44b5e47f-9106-4ac0-8c86-042b3898560a}, !- Space Name
  Surface,                                !- Outside Boundary Condition
  {d36413f0-167a-4093-aa1f-59270ed7a20c}, !- Outside Boundary Condition Object
  NoSun,                                  !- Sun Exposure
  NoWind,                                 !- Wind Exposure
  ,                                       !- View Factor to Ground
  ,                                       !- Number of Vertices
  68.534, 44.165, 2.744,                  !- X,Y,Z Vertex 1 {m}
  68.534, 44.165, 0,                      !- X,Y,Z Vertex 2 {m}
  68.534, 4.5732, 0,                      !- X,Y,Z Vertex 3 {m}
  68.534, 4.5732, 2.744;                  !- X,Y,Z Vertex 4 {m}

OS:Space,
  {44b5e47f-9106-4ac0-8c86-042b3898560a}, !- Handle
  Perimeter_bot_ZN_2,                     !- Name
  {d399b5d0-0a44-44d4-9dbc-ecf844db6ee9}, !- Space Type Name
  ,                                       !- Default Construction Set Name
  ,                                       !- Default Schedule Set Name
  0,                                      !- Direction of Relative North {deg}
  0,                                      !- X Origin {m}
  0,                                      !- Y Origin {m}
  0,                                      !- Z Origin {m}
  {be85f68e-d1e2-4349-a7b6-eeb49960d7db}, !- Building Story Name
  {c89aea2e-4a69-4f39-bc2d-c480d9bcb4a4}, !- Thermal Zone Name
  Yes,                                    !- Part of Total Floor Area
  {8d0e2af9-2cc7-455d-a2bb-06f46b99767c}; !- Design Specification Outdoor Air Object Name

OS:Space,
  {8b1a8556-7a3e-462c-b044-a300a081d056}, !- Handle
  TopFloor_Plenum,                        !- Name
  {90257aa5-0887-4657-a46d-c1333c8bfdcd}, !- Space Type Name
  ,                                       !- Default Construction Set Name
  ,                                       !- Default Schedule Set Name
  0,                                      !- Direction of Relative North {deg}
  0,                                      !- X Origin {m}
  0,                                      !- Y Origin {m}
  0,                                      !- Z Origin {m}
  {be85f68e-d1e2-4349-a7b6-eeb49960d7db}, !- Building Story Name
  ,                                       !- Thermal Zone Name
  No;                                     !- Part of Total Floor Area

OS:Surface,
  {cdc7f5a7-1391-451c-b028-e74eb96ea89a}, !- Handle
  Perimeter_top_ZN_1_Ceiling,             !- Name
  RoofCeiling,                            !- Surface Type
  {1afa19ab-ea36-45ce-9cbd-3ceaece75596}, !- Construction Name
  {d26999bb-19ec-4ac3-a380-40b45a59ce9f}, !- Space Name
  Surface,                                !- Outside Boundary Condition
  {d71ceb95-bc98-426f-8c90-baf8ca7b2728}, !- Outside Boundary Condition Object
  NoSun,                                  !- Sun Exposure
  NoWind,                                 !- Wind Exposure
  ,                                       !- View Factor to Ground
  ,                                       !- Number of Vertices
  73.1072, 0, 46.3392,                    !- X,Y,Z Vertex 1 {m}
  68.534, 4.5732, 46.3392,                !- X,Y,Z Vertex 2 {m}
  4.5732, 4.5732, 46.3392,                !- X,Y,Z Vertex 3 {m}
  0, 0, 46.3392;                          !- X,Y,Z Vertex 4 {m}

OS:Construction,
  {1afa19ab-ea36-45ce-9cbd-3ceaece75596}, !- Handle
  DropCeiling,                            !- Name
  ,                                       !- Surface Rendering Name
  {5373cfa4-b727-4c8c-ab76-5c8cb061bb7a}; !- Layer 1

OS:Material,
  {5373cfa4-b727-4c8c-ab76-5c8cb061bb7a}, !- Handle
  Std AC02,                               !- Name
  MediumSmooth,                           !- Roughness
  0.0127,                                 !- Thickness {m}
  0.057,                                  !- Conductivity {W/m-K}
  288,                                    !- Density {kg/m3}
  1339,                                   !- Specific Heat {J/kg-K}
  0.9,                                    !- Thermal Absorptance
  0.7,                                    !- Solar Absorptance
  0.2;                                    !- Visible Absorptance

OS:Space,
  {d26999bb-19ec-4ac3-a380-40b45a59ce9f}, !- Handle
  Perimeter_top_ZN_1,                     !- Name
  {d399b5d0-0a44-44d4-9dbc-ecf844db6ee9}, !- Space Type Name
  ,                                       !- Default Construction Set Name
  ,                                       !- Default Schedule Set Name
  0,                                      !- Direction of Relative North {deg}
  0,                                      !- X Origin {m}
  0,                                      !- Y Origin {m}
  0,                                      !- Z Origin {m}
  {be85f68e-d1e2-4349-a7b6-eeb49960d7db}, !- Building Story Name
  {0533d5ce-fb44-41fa-9e52-6977dccecd4a}, !- Thermal Zone Name
  Yes,                                    !- Part of Total Floor Area
  {9dd1e94a-a747-4b89-abea-edd16da72320}; !- Design Specification Outdoor Air Object Name

OS:People:Definition,
  {c0f5e572-448e-4e6d-8002-8c7b956d38e0}, !- Handle
  Core_mid People Definition,             !- Name
  Area/Person,                            !- Number of People Calculation Method
  ,                                       !- Number of People {people}
  ,                                       !- People per Space Floor Area {person/m2}
  18.58,                                  !- Space Floor Area per Person {m2/person}
  0.3,                                    !- Fraction Radiant
  ,                                       !- Sensible Heat Fraction
  ,                                       !- Carbon Dioxide Generation Rate {m3/s-W}
  No,                                     !- Enable ASHRAE 55 Comfort Warnings
  ZoneAveraged;                           !- Mean Radiant Temperature Calculation Type

OS:People,
  {f8bea999-ed89-409d-ae5d-b6a2c6617645}, !- Handle
  Core_mid People,                        !- Name
  {c0f5e572-448e-4e6d-8002-8c7b956d38e0}, !- People Definition Name
  {2e9ad592-e0d4-4923-86ec-c09cd21bd5e9}, !- Space or SpaceType Name
  {acae1c61-6d64-4f21-a38c-2a9beb1dec26}, !- Number of People Schedule Name
  {625b1e41-01a1-4dbe-9282-5cc816ed520a}, !- Activity Level Schedule Name
  ,                                       !- Surface Name/Angle Factor List Name
  {ac11b963-794e-4d5e-8b8d-915fe81464b8}; !- Work Efficiency Schedule Name

OS:Space,
  {2e9ad592-e0d4-4923-86ec-c09cd21bd5e9}, !- Handle
  Core_mid,                               !- Name
  {d399b5d0-0a44-44d4-9dbc-ecf844db6ee9}, !- Space Type Name
  ,                                       !- Default Construction Set Name
  ,                                       !- Default Schedule Set Name
  0,                                      !- Direction of Relative North {deg}
  0,                                      !- X Origin {m}
  0,                                      !- Y Origin {m}
  0,                                      !- Z Origin {m}
  {be85f68e-d1e2-4349-a7b6-eeb49960d7db}, !- Building Story Name
  {ab90910f-b337-4f57-86ea-886827c1da15}, !- Thermal Zone Name
  Yes,                                    !- Part of Total Floor Area
  {64db0865-e033-4262-b442-163ea830a958}; !- Design Specification Outdoor Air Object Name

OS:Construction,
  {d068ed5a-7af1-4256-bbcf-f0d30a4df720}, !- Handle
  IEAD Non-res Roof,                      !- Name
  ,                                       !- Surface Rendering Name