
OS:Version,
  {8d23a205-7152-4672-a0cc-e3146816c5aa}, !- Handle
  1.8.5;                                  !- Version Identifier

OS:Site,
  {30422dfa-679d-4536-9e88-3421848c651a}, !- Handle
  USA IL-CHICAGO-OHARE,                   !- Name
  41.77,                                  !- Latitude {deg}
  -87.75,                                 !- Longitude {deg}
  -6,                                     !- Time Zone {hr}
  190,                                    !- Elevation {m}
  City;                                   !- Terrain

OS:SimulationControl,
  {e071a721-0c37-46d1-b1f7-7462b9825e1b}, !- Handle
  Yes,                                    !- Do Zone Sizing Calculation
  Yes,                                    !- Do System Sizing Calculation
  Yes,                                    !- Do Plant Sizing Calculation
  No,                                     !- Run Simulation for Sizing Periods
  Yes,                                    !- Run Simulation for Weather File Run Periods
  0.04,                                   !- Loads Convergence Tolerance Value
  0.2,                                    !- Temperature Convergence Tolerance Value {deltaC}
  FullInteriorAndExterior,                !- Solar Distribution
  25,                                     !- Maximum Number of Warmup Days
  6;                                      !- Minimum Number of Warmup Days

OS:Surface,
  {aaf47f43-5873-4bf1-bd90-c7aec6135da8}, !- Handle
  Perimeter_bot_ZN_1_Wall_North,          !- Name
  Wall,                                   !- Surface Type
  {a4409d85-ac33-454d-95fc-8c8289c773ab}, !- Construction Name
  {49c5fd42-d55f-47b6-8848-0ce8a1c6302c}, !- Space Name
  Surface,                                !- Outside Boundary Condition
  {7fcdcef8-3059-4c4a-a4a1-362adbb51242}, !- Outside Boundary Condition Object
  NoSun,                                  !- Sun Exposure
  NoWind,                                 !- Wind Exposure
  ,                                       !- View Factor to Ground
  ,                                       !- Number of Vertices
  68.534, 4.5732, 2.744,                  !- X,Y,Z Vertex 1 {m}
  68.534, 4.5732, 0,                      !- X,Y,Z Vertex 2 {m}
  4.5732, 4.5732, 0,                      !- X,Y,Z Vertex 3 {m}
  4.5732, 4.5732, 2.744;                  !- X,Y,Z Vertex 4 {m}

OS:Construction,
  {a4409d85-ac33-454d-95fc-8c8289c773ab}, !- Handle
  int-walls,                              !- Name
  ,                                       !- Surface Rendering Name
  {1f6f3b6d-170d-453e-bbfa-3eb5aa735da4}, !- Layer 1
  {1f6f3b6d-170d-453e-bbfa-3eb5aa735da4}; !- Layer 2

OS:Material,
  {1f6f3b6d-170d-453e-bbfa-3eb5aa735da4}, !- Handle
  1/2IN Gypsum,                           !- Name
  Smooth,                                 !- Roughness
  0.0127,                                 !- Thickness {m}
  0.16,                                   !- Conductivity {W/m-K}
  784.9,                                  !- Density {kg/m3}
  830,                                    !- Specific Heat {J/kg-K}
  0.9,                                    !- Thermal Absorptance
  0.92,                                   !- Solar Absorptance
  0.92;                                   !- Visible Absorptance

OS:Space,
  {49c5fd42-d55f-47b6-8848-0ce8a1c6302c}, !- Handle
  Perimeter_bot_ZN_1,                     !- Name
  {99ed4c5f-be12-431c-977f-c1c0228c9a6d}, !- Space Type Name
  ,                                       !- Default Construction Set Name
  ,                                       !- Default Schedule Set Name
  0,                                      !- Direction of Relative North {deg}
  0,                                      !- X Origin {m}
  0,                                      !- Y Origin {m}
  0,                                      !- Z Origin {m}
  {caa48e0f-7dc4-41e9-ad2c-df82a2c0d11c}, !- Building Story Name
  {2e9c910d-32fe-4919-adb0-7ad8b91c7322}, !- Thermal Zone Name
  Yes,                                    !- Part of Total Floor Area
  {26f77327-2c1c-4a2d-8701-35834ee18de4}; !- Design Specification Outdoor Air Object Name

OS:ThermostatSetpoint:DualSetpoint,
  {7624c747-bd32-4e8e-84a6-a9d18d2545ec}, !- Handle
  {73a56295-30bb-447c-9c39-ddf9f49d408b}, !- Name
  {30236920-1387-41d7-8af7-1c6483696a39}, !- Heating Setpoint Temperature Schedule Name
  {e6728864-707e-442c-b799-ccde1494bb68}; !- Cooling Setpoint Temperature Schedule Name

OS:Schedule:Compact,
  {30236920-1387-41d7-8af7-1c6483696a39}, !- Handle
  HTGSETP_SCH,                            !- Name
  {904b58bf-73e0-45d3-b65f-07bc20e77195}, !- Schedule Type Limits Name
  Through: 12/31,                         !- Field 1
  For: Weekdays,                          !- Field 2
  Until: 06:00,                           !- Field 3
  15.6,                                   !- Field 4
  Until: 22:00,                           !- Field 5
  21.0,                                   !- Field 6
  Until: 24:00,                           !- Field 7
  15.6,                                   !- Field 8
  For SummerDesignDay,                    !- Field 9
  Until: 24:00,                           !- Field 10
  15.6,                                   !- Field 11
  For: Saturday,                          !- Field 12
  Until: 06:00,                           !- Field 13
  15.6,                                   !- Field 14
  Until: 18:00,                           !- Field 15
  21.0,                                   !- Field 16
  Until: 24:00,                           !- Field 17
  15.6,                                   !- Field 18
  For: WinterDesignDay,                   !- Field 19
  Until: 24:00,                           !- Field 20
  21.0,                                   !- Field 21
  For: AllOtherDays,                      !- Field 22
  Until: 24:00,                           !- Field 23
  15.6;                                   !- Field 24

OS:ScheduleTypeLimits,
  {904b58bf-73e0-45d3-b65f-07bc20e77195}, !- Handle
  Temperature,                            !- Name
  -60,                                    !- Lower Limit Value {BasedOnField A4}
  200,                                    !- Upper Limit Value {BasedOnField A4}
  CONTINUOUS,                             !- Numeric Type
  Temperature;                            !- Unit Type

OS:Schedule:Compact,
  {e6728864-707e-442c-b799-ccde1494bb68}, !- Handle
  CLGSETP_SCH,                            !- Name
  {904b58bf-73e0-45d3-b65f-07bc20e77195}, !- Schedule Type Limits Name
  Through: 12/31,                         !- Field 1
  For: Weekdays SummerDesignDay,          !- Field 2
  Until: 06:00,                           !- Field 3
  26.7,                                   !- Field 4
  Until: 22:00,                           !- Field 5
  24.0,                                   !- Field 6
  Until: 24:00,                           !- Field 7
  26.7,                                   !- Field 8
  For: Saturday,                          !- Field 9
  Until: 06:00,                           !- Field 10
  26.7,                                   !- Field 11
  Until: 18:00,                           !- Field 12
  24.0,                                   !- Field 13
  Until: 24:00,                           !- Field 14
  26.7,                                   !- Field 15
  For WinterDesignDay,                    !- Field 16
  Until: 24:00,                           !- Field 17
  26.7,                                   !- Field 18
  For: AllOtherDays,                      !- Field 19
  Until: 24:00,                           !- Field 20
  26.7;                                   !- Field 21

OS:Surface,
  {ed25ae09-be23-482b-b16d-790191bc5ba9}, !- Handle
  TopFloor_Plenum_Floor_2,                !- Name
  Floor,                                  !- Surface Type
  {334e5498-a410-47ff-907e-d29249b6bf64}, !- Construction Name
  {b0149e92-0d10-4d1c-8e9b-8d9bcb320c2c}, !- Space Name
  Surface,                                !- Outside Boundary Condition
  {822a41ce-2a99-41fa-8098-de444d3adb18}, !- Outside Boundary Condition Object
  NoSun,                                  !- Sun Exposure
  NoWind,                                 !- Wind Exposure
  ,                                       !- View Factor to Ground
  ,                                       !- Number of Vertices
  73.1072, 48.7381, 46.3392,              !- X,Y,Z Vertex 1 {m}
  73.1072, 0, 46.3392,                    !- X,Y,Z Vertex 2 {m}
  68.534, 4.5732, 46.3392,                !- X,Y,Z Vertex 3 {m}
  68.534, 44.165, 46.3392;                !- X,Y,Z Vertex 4 {m}

OS:Construction,
  {334e5498-a410-47ff-907e-d29249b6bf64}, !- Handle
  DropCeiling,                            !- Name
  ,                                       !- Surface Rendering Name
  {2c1efaa4-0d40-4e56-8533-3cc11ad24c09}; !- Layer 1

OS:Material,
  {2c1efaa4-0d40-4e56-8533-3cc11ad24c09}, !- Handle
  Std AC02,                               !- Name
  MediumSmooth,                           !- Roughness
  0.0127,                                 !- Thickness {m}
  0.057,                                  !- Conductivity {W/m-K}
  288,                                    !- Density {kg/m3}
  1339,                                   !- Specific Heat {J/kg-K}
  0.9,                                    !- Thermal Absorptance
  0.7,                                    !- Solar Absorptance
  0.2;                                    !- Visible Absorptance

OS:Space,
  {b0149e92-0d10-4d1c-8e9b-8d9bcb320c2c}, !- Handle
  TopFloor_Plenum,                        !- Name
  {2e4d0093-7ab2-45a9-a5ab-26ee6ed8e7c1}, !- Space Type Name
  ,                                       !- Default Construction Set Name
  ,                                       !- Default Schedule Set Name
  0,                                      !- Direction of Relative North {deg}
  0,                                      !- X Origin {m}
  0,                                      !- Y Origin {m}
  0,                                      !- Z Origin {m}
  {caa48e0f-7dc4-41e9-ad2c-df82a2c0d11c}, !- Building Story Name
  ,                                       !- Thermal Zone Name
  No;                                     !- Part of Total Floor Area

OS:Meter,
  {dcf3de49-5e3f-4334-aa8f-9685843d1d9a}, !- Handle
  WaterSystems:Gas,                       !- Name
  hourly,                                 !- Reporting Frequency
  False,                                  !- Meter File Only
  False;                                  !- Cumulative

OS:ElectricEquipment:Definition,
  {836f73ae-4a1f-4e65-9626-e05bab4765d8}, !- Handle
  Perimeter_top_ZN_2_PlugMisc_Equip Definition, !- Name
  Watts/Area,                             !- Design Level Calculation Method
  ,                                       !- Design Level {W}
  10.76,                                  !- Watts per Space Floor Area {W/m2}
  ,                                       !- Watts per Person {W/person}
  0,                                      !- Fraction Latent
  0.5,                                    !- Fraction Radiant
  0;                                      !- Fraction Lost

OS:ElectricEquipment,
  {019c2437-9500-43ce-8ffc-50319d3c2a4a}, !- Handle
  Perimeter_top_ZN_2_PlugMisc_Equip,      !- Name
  {836f73ae-4a1f-4e65-9626-e05bab4765d8}, !- Electric Equipment Definition Name
  {04defd48-aa03-4208-bf77-d27da1e3e3f4}, !- Space or SpaceType Name
  {eee2e206-b7a5-49c9-b6d3-8184f57daf96}, !- Schedule Name
  ,                                       !- Multiplier
  General;                                !- End-Use Subcategory

OS:Space,
  {04defd48-aa03-4208-bf77-d27da1e3e3f4}, !- Handle
  Perimeter_top_ZN_2,                     !- Name
  {99ed4c5f-be12-431c-977f-c1c0228c9a6d}, !- Space Type Name
  ,                                       !- Default Construction Set Name
  ,                                       !- Default Schedule Set Name
  0,                                      !- Direction of Relative North {deg}
  0,                                      !- X Origin {m}
  0,                                      !- Y Origin {m}
  0,                                      !- Z Origin {m}
  {caa48e0f-7dc4-41e9-ad2c-df82a2c0d11c}, !- Building Story Name
  {4924089a-7976-4c32-a4a2-d216e9ec36a8}, !- Thermal Zone Name
  Yes,                                    !- Part of Total Floor Area
  {7d912c72-8db4-4ac1-bc86-fb1a8179b332}; !- Design Specification Outdoor Air Object Name

OS:ThermostatSetpoint:DualSetpoint,
  {1c43064b-385a-48e3-a8b0-b7a02e157767}, !- Handle
  {07bea3da-4189-4562-9f62-9ca8fc6cc556}, !- Name
  {30236920-1387-41d7-8af7-1c6483696a39}, !- Heating Setpoint Temperature Schedule Name
  {e6728864-707e-442c-b799-ccde1494bb68}; !- Cooling Setpoint Temperature Schedule Name

OS:Schedule:Compact,
  {eee2e206-b7a5-49c9-b6d3-8184f57daf96}, !- Handle
  BLDG_EQUIP_SCH,                         !- Name
  {b9cb2a64-18f5-4f92-9851-c1e274c2559e}, !- Schedule Type Limits Name
  Through: 12/31,                         !- Field 1
  For: Weekdays,                          !- Field 2
  Until: 08:00,                           !- Field 3
  0.40,                                   !- Field 4
  Until: 12:00,                           !- Field 5
  0.90,                                   !- Field 6
  Until: 13:00,                           !- Field 7
  0.80,                                   !- Field 8
  Until: 17:00,                           !- Field 9
  0.90,                                   !- Field 10
  Until: 18:00,                           !- Field 11
  0.80,                                   !- Field 12
  Until: 20:00,                           !- Field 13
  0.60,                                   !- Field 14
  Until: 22:00,                           !- Field 15
  0.50,                                   !- Field 16
  Until: 24:00,                           !- Field 17
  0.40,                                   !- Field 18
  For: Saturday,                          !- Field 19
  Until: 06:00,                           !- Field 20
  0.30,                                   !- Field 21
  Until: 08:00,                           !- Field 22
  0.4,                                    !- Field 23
  Until: 14:00,                           !- Field 24
  0.5,                                    !- Field 25
  Until: 17:00,                           !- Field 26
  0.35,                                   !- Field 27
  Until: 24:00,                           !- Field 28
  0.30,                                   !- Field 29
  For: SummerDesignDay,                   !- Field 30
  Until: 24:00,                           !- Field 31
  1.0,                                    !- Field 32
  For: WinterDesignDay,                   !- Field 33
  Until: 24:00,                           !- Field 34
  0.0,                                    !- Field 35
  For: AllOtherDays,                      !- Field 36
  Until: 24:00,                           !- Field 37
  0.30;                                   !- Field 38

OS:ScheduleTypeLimits,
  {b9cb2a64-18f5-4f92-9851-c1e274c2559e}, !- Handle
  Fraction,                               !- Name
  0,                                      !- Lower Limit Value {BasedOnField A4}
  1,                                      !- Upper Limit Value {BasedOnField A4}
  CONTINUOUS;                             !- Numeric Type

OS:Meter,
  {ed382f21-0774-42de-bd3e-0ddecca829a5}, !- Handle
  HeatRejection:Electricity,              !- Name
  hourly,                                 !- Reporting Frequency
  False,                                  !- Meter File Only
  False;                                  !- Cumulative

OS:Lights:Definition,
  {fd8956f5-ade0-4178-9291-9e3e2099cdb8}, !- Handle
  Perimeter_bot_ZN_3_Lights Definition,   !- Name
  Watts/Area,                             !- Design Level Calculation Method
  ,                                       !- Lighting Level {W}
  10.76,                                  !- Watts per Space Floor Area {W/m2}
  ,                                       !- Watts per Person {W/person}
  0.7,                                    !- Fraction Radiant
  0.2,                                    !- Fraction Visible
  0,                                      !- Return Air Fraction
  No;                                     !- Return Air Fraction Calculated from Plenum Temperature

OS:Lights,
  {21a1e58e-f317-440a-8e70-6c9e885a7246}, !- Handle
  Perimeter_bot_ZN_3_Lights,              !- Name
  {fd8956f5-ade0-4178-9291-9e3e2099cdb8}, !- Lights Definition Name
  {98f38787-cac0-453c-b5e0-c7d7c2702aba}, !- Space or SpaceType Name
  {53ebcf22-74d8-49b7-ab90-fad8ad32fcc5}, !- Schedule Name
  1,                                      !- Fraction Replaceable
  ,                                       !- Multiplier
  General;                                !- End-Use Subcategory

OS:Space,
  {98f38787-cac0-453c-b5e0-c7d7c2702aba}, !- Handle
  Perimeter_bot_ZN_3,                     !- Name
  {99ed4c5f-be12-431c-977f-c1c0228c9a6d}, !- Space Type Name
  ,                                       !- Default Construction Set Name
  ,                                       !- Default Schedule Set Name
  0,                                      !- Direction of Relative North {deg}
  0,                                      !- X Origin {m}
  0,                                      !- Y Origin {m}
  0,                                      !- Z Origin {m}
  {caa48e0f-7dc4-41e9-ad2c-df82a2c0d11c}, !- Building Story Name
  {07c6761d-4b9f-4aa2-886a-b1a128b1e5e0}, !- Thermal Zone Name
  Yes,                                    !- Part of Total Floor Area
  {40326047-b5e0-4941-91a2-de5a8e44eeaf}; !- Design Specification Outdoor Air Object Name

OS:ThermostatSetpoint:DualSetpoint,
  {49d042c0-75fa-4ac9-86dc-899f290b5437}, !- Handle
  {47730793-5a7e-4de2-8479-1136327c3c70}, !- Name
  {30236920-1387-41d7-8af7-1c6483696a39}, !- Heating Setpoint Temperature Schedule Name
  {e6728864-707e-442c-b799-ccde1494bb68}; !- Cooling Setpoint Temperature Schedule Name

OS:Schedule:Compact,
  {53ebcf22-74d8-49b7-ab90-fad8ad32fcc5}, !- Handle
  BLDG_LIGHT_SCH,                         !- Name
  {b9cb2a64-18f5-4f92-9851-c1e274c2559e}, !- Schedule Type Limits Name
  Through: 12/31,                         !- Field 1
  For: Weekdays,                          !- Field 2
  Until: 05:00,                           !- Field 3
  0.05,                                   !- Field 4
  Until: 07:00,                           !- Field 5
  0.1,                                    !- Field 6
  Until: 08:00,                           !- Field 7
  0.3,                                    !- Field 8
  Until: 17:00,                           !- Field 9
  0.9,                                    !- Field 10
  Until: 18:00,                           !- Field 11
  0.7,                                    !- Field 12
  Until: 20:00,                           !- Field 13
  0.5,                                    !- Field 14
  Until: 22:00,                           !- Field 15
  0.3,                                    !- Field 16
  Until: 23:00,                           !- Field 17
  0.1,                                    !- Field 18
  Until: 24:00,                           !- Field 19
  0.05,                                   !- Field 20
  For: Saturday,                          !- Field 21
  Until: 06:00,                           !- Field 22
  0.05,                                   !- Field 23
  Until: 08:00,                           !- Field 24
  0.1,                                    !- Field 25
  Until: 14:00,                           !- Field 26
  0.5,                                    !- Field 27
  Until: 17:00,                           !- Field 28
  0.15,                                   !- Field 29
  Until: 24:00,                           !- Field 30
  0.05,                                   !- Field 31
  For: SummerDesignDay,                   !- Field 32
  Until: 24:00,                           !- Field 33
  1.0,                                    !- Field 34
  For: WinterDesignDay,                   !- Field 35
  Until: 24:00,                           !- Field 36
  0.0,                                    !- Field 37
  For: AllOtherDays,                      !- Field 38
  Until: 24:00,                           !- Field 39
  0.05;                                   !- Field 40

OS:Space,
  {ea03d651-e3c5-4d9c-a96e-8d3febf089b3}, !- Handle
  Core_mid,                               !- Name
  {99ed4c5f-be12-431c-977f-c1c0228c9a6d}, !- Space Type Name
  ,                                       !- Default Construction Set Name
  ,                                       !- Default Schedule Set Name
  0,                                      !- Direction of Relative North {deg}
  0,                                      !- X Origin {m}
  0,                                      !- Y Origin {m}
  0,                                      !- Z Origin {m}
  {caa48e0f-7dc4-41e9-ad2c-df82a2c0d11c}, !- Building Story Name
  {bb044f46-7284-42c0-90b0-59604c89ac83}, !- Thermal Zone Name
  Yes,                                    !- Part of Total Floor Area
  {35774277-959f-4208-8dee-1abf60498d5d}; !- Design Specification Outdoor Air Object Name

OS:ThermostatSetpoint:DualSetpoint,
  {a0ee068b-ff2a-4178-a506-6cd18fd24ff2}, !- Handle
  {257f56e6-681a-4c6e-8ac7-3ce8eae075cd}, !- Name
  {30236920-1387-41d7-8af7-1c6483696a39}, !- Heating Setpoint Temperature Schedule Name
  {e6728864-707e-442c-b799-ccde1494bb68}; !- Cooling Setpoint Temperature Schedule Name

OS:DesignSpecification:OutdoorAir,
  {35774277-959f-4208-8dee-1abf60498d5d}, !- Handle
  SZ DSOA Core_mid,                       !- Name
  ,                                       !- Outdoor Air Method
  0.0125,                                 !- Outdoor Air Flow per Person {m3/s-person}
  ,                                       !- Outdoor Air Flow per Floor Area {m3/s-m2}
  ,                                       !- Outdoor Air Flow Rate {m3/s}
  ,                                       !- Outdoor Air Flow Air Changes per Hour {1/hr}
  ;                                       !- Outdoor Air Flow Rate Fraction Schedule Name

OS:Space,
  {363a4fb9-3aba-4a71-9905-ca9899ba1e7d}, !- Handle
  Perimeter_mid_ZN_3,                     !- Name
  {99ed4c5f-be12-431c-977f-c1c0228c9a6d}, !- Space Type Name
  ,                                       !- Default Construction Set Name
  ,                                       !- Default Schedule Set Name
  0,                                      !- Direction of Relative North {deg}
  0,                                      !- X Origin {m}
  0,                                      !- Y Origin {m}
  0,                                      !- Z Origin {m}
  {caa48e0f-7dc4-41e9-ad2c-df82a2c0d11c}, !- Building Story Name
  {07c6761d-4b9f-4aa2-886a-b1a128b1e5e0}, !- Thermal Zone Name
  Yes,                                    !- Part of Total Floor Area
  {7456ca32-39ec-4219-b0b4-4cf3982b7ad8}; !- Design Specification Outdoor Air Object Name

OS:ThermostatSetpoint:DualSetpoint,
  {12ec6b87-ddd4-4a7f-887f-b501b492b2b1}, !- Handle
  {e52b7237-1b2c-49cf-b527-894cc0ca5133}, !- Name
  {30236920-1387-41d7-8af7-1c6483696a39}, !- Heating Setpoint Temperature Schedule Name
  {e6728864-707e-442c-b799-ccde1494bb68}; !- Cooling Setpoint Temperature Schedule Name

OS:Surface,
  {a806c2e4-7511-4ae0-a93c-6e42e9b64c4a}, !- Handle
  GroundFloor_Plenum_Floor_1,             !- Name
  Floor,                                  !- Surface Type
  {334e5498-a410-47ff-907e-d29249b6bf64}, !- Construction Name
  {c356f23c-65d2-4c2c-b1e8-d2c24241848c}, !- Space Name
  Surface,                                !- Outside Boundary Condition
  {c8612a08-de22-4b35-b94c-4d267afbe4ca}, !- Outside Boundary Condition Object
  NoSun,                                  !- Sun Exposure
  NoWind,                                 !- Wind Exposure
  ,                                       !- View Factor to Ground
  ,                                       !- Number of Vertices
  68.534, 4.5732, 2.744,                  !- X,Y,Z Vertex 1 {m}
  73.1072, 0, 2.744,                      !- X,Y,Z Vertex 2 {m}
  0, 0, 2.744,                            !- X,Y,Z Vertex 3 {m}
  4.5732, 4.5732, 2.744;                  !- X,Y,Z Vertex 4 {m}

OS:Space,
  {c356f23c-65d2-4c2c-b1e8-d2c24241848c}, !- Handle
  GroundFloor_Plenum,                     !- Name
  {2e4d0093-7ab2-45a9-a5ab-26ee6ed8e7c1}, !- Space Type Name
  ,                                       !- Default Construction Set Name
  ,                                       !- Default Schedule Set Name
  0,                                      !- Direction of Relative North {deg}
  0,                                      !- X Origin {m}
  0,                                      !- Y Origin {m}
  0,                                      !- Z Origin {m}
  {caa48e0f-7dc4-41e9-ad2c-df82a2c0d11c}, !- Building Story Name
  ,                                       !- Thermal Zone Name
  No;                                     !- Part of Total Floor Area

OS:Surface,
  {bde5827b-5fbd-4718-89af-1c5cb61eba85}, !- Handle
  Core_top_ZN_5_Ceiling,                  !- Name
  RoofCeiling,                            !- Surface Type
  {334e5498-a410-47ff-907e-d29249b6bf64}, !- Construction Name
  {3aff0c56-6f77-4dc8-a3b5-90578eae8053}, !- Space Name
  Surface,                                !- Outside Boundary Condition
  {dba0c2ae-c04a-4810-8e50-41f69840a49d}, !- Outside Boundary Condition Object
  NoSun,                                  !- Sun Exposure
  NoWind,                                 !- Wind Exposure
  ,                                       !- View Factor to Ground
  ,                                       !- Number of Vertices
  68.534, 4.5732, 46.3392,                !- X,Y,Z Vertex 1 {m}
  68.534, 44.165, 46.3392,                !- X,Y,Z Vertex 2 {m}
  4.5732, 44.165, 46.3392,                !- X,Y,Z Vertex 3 {m}
  4.5732, 4.5732, 46.3392;                !- X,Y,Z Vertex 4 {m}

OS:Space,
  {3aff0c56-6f77-4dc8-a3b5-90578eae8053}, !- Handle
  Core_top,                               !- Name
  {99ed4c5f-be12-431c-977f-c1c0228c9a6d}, !- Space Type Name
  ,                                       !- Default Construction Set Name
  ,                                       !- Default Schedule Set Name
  0,                                      !- Direction of Relative North {deg}
  0,                                      !- X Origin {m}
  0,                                      !- Y Origin {m}
  0,                                      !- Z Origin {m}
  {caa48e0f-7dc4-41e9-ad2c-df82a2c0d11c}, !- Building Story Name
  {bb044f46-7284-42c0-90b0-59604c89ac83}, !- Thermal Zone Name
  Yes,                                    !- Part of Total Floor Area
  {f74676f1-4b58-4768-bdff-af4e0bfee5a9}; !- Design Specification Outdoor Air Object Name

OS:ThermostatSetpoint:DualSetpoint,
  {910cbd45-0c62-4c60-9a21-e0fce979a0ba}, !- Handle
  {a052e7ed-d3bf-459e-8902-d651f9f44b68}, !- Name
  {30236920-1387-41d7-8af7-1c6483696a39}, !- Heating Setpoint Temperature Schedule Name
  {e6728864-707e-442c-b799-ccde1494bb68}; !- Cooling Setpoint Temperature Schedule Name

OS:SubSurface,
  {fdf95062-0de5-4830-9c88-386c0192db70}, !- Handle
  Perimeter_mid_ZN_3_Wall_North_Window,   !- Name
  FixedWindow,                            !- Sub Surface Type
  {ac26631d-2140-4c44-ac38-230ef1cd0d21}, !- Construction Name
  {86793132-35f8-47cc-8077-4167cb6042ed}, !- Surface Name
  ,                                       !- Outside Boundary Condition Object
  ,                                       !- View Factor to Ground
  ,                                       !- Shading Control Name
  ,                                       !- Frame and Divider Name
  1,                                      !- Multiplier
  ,                                       !- Number of Vertices
  73.107, 48.7381, 22.316,                !- X,Y,Z Vertex 1 {m}
  73.107, 48.7381, 20.7306,               !- X,Y,Z Vertex 2 {m}
  0, 48.7381, 20.7306,                    !- X,Y,Z Vertex 3 {m}
  0, 48.7381, 22.316;                     !- X,Y,Z Vertex 4 {m}

OS:Construction,
  {ac26631d-2140-4c44-ac38-230ef1cd0d21}, !- Handle
  Window Non-res Fixed,                   !- Name
  ,                                       !- Surface Rendering Name
  {1f397b95-93ce-4731-a5fe-83fafb9eb215}; !- Layer 1

OS:WindowMaterial:SimpleGlazingSystem,
  {1f397b95-93ce-4731-a5fe-83fafb9eb215}, !- Handle
  NonRes Fixed Assembly Window,           !- Name
  3.23646,                                !- U-Factor {W/m2-K}
  0.39;                                   !- Solar Heat Gain Coefficient

OS:Surface,
  {86793132-35f8-47cc-8077-4167cb6042ed}, !- Handle
  Perimeter_mid_ZN_3_Wall_North,          !- Name
  Wall,                                   !- Surface Type
  {ac821dc5-6c87-4086-a6e6-ad767452d477}, !- Construction Name
  {363a4fb9-3aba-4a71-9905-ca9899ba1e7d}, !- Space Name
  Outdoors,                               !- Outside Boundary Condition
  ,                                       !- Outside Boundary Condition Object
  SunExposed,                             !- Sun Exposure
  WindExposed,                            !- Wind Exposure
  ,                                       !- View Factor to Ground
  ,                                       !- Number of Vertices
  73.1072, 48.7381, 22.56,                !- X,Y,Z Vertex 1 {m}
  73.1072, 48.7381, 19.816,               !- X,Y,Z Vertex 2 {m}
  0, 48.7381, 19.816,                     !- X,Y,Z Vertex 3 {m}
  0, 48.7381, 22.56;                      !- X,Y,Z Vertex 4 {m}

OS:Construction,
  {ac821dc5-6c87-4086-a6e6-ad767452d477}, !- Handle
  Mass Non-res Ext Wall,                  !- Name
  ,                                       !- Surface Rendering Name
  {1693f4d5-9156-4ade-86be-883b544ca15c}, !- Layer 1
  {db732edc-94b1-4055-a9b6-e1732e1fba88}, !- Layer 2
  {86c4d0dd-a510-42ae-bd54-04f320a5a65c}, !- Layer 3
  {1f6f3b6d-170d-453e-bbfa-3eb5aa735da4}; !- Layer 4
