
OS:Version,
  {a2c86273-cbb3-4a6c-bd59-2a2e463d40c0}, !- Handle
  1.8.0;                                  !- Version Identifier

OS:Site,
  {8c6edec3-15ee-4a59-9b0a-822c7972a664}, !- Handle
  USA IL-CHICAGO-OHARE,                   !- Name
  41.77,                                  !- Latitude {deg}
  -87.75,                                 !- Longitude {deg}
  -6,                                     !- Time Zone {hr}
  190,                                    !- Elevation {m}
  City;                                   !- Terrain

OS:SimulationControl,
  {ea86b9b5-8494-4e67-b851-402afa5a519e}, !- Handle
  Yes,                                    !- Do Zone Sizing Calculation
  Yes,                                    !- Do System Sizing Calculation
  Yes,                                    !- Do Plant Sizing Calculation
  No,                                     !- Run Simulation for Sizing Periods
  Yes,                                    !- Run Simulation for Weather File Run Periods
  0.04,                                   !- Loads Convergence Tolerance Value
  0.2,                                    !- Temperature Convergence Tolerance Value {deltaC}
  FullInteriorAndExterior,                !- Solar Distribution
  25,                                     !- Maximum Number of Warmup Days
  6;                                      !- Minimum Number of Warmup Days

OS:Surface,
  {e6afc242-5d35-44f2-89f6-6107a7c0923b}, !- Handle
  MidFloor_Plenum_Floor_5,                !- Name
  Floor,                                  !- Surface Type
  {df0928b5-c99f-4ad7-ba45-cf4bd2643bb7}, !- Construction Name
  {6112deb1-ddcc-4b60-b2ae-369a79be6e50}, !- Space Name
  Surface,                                !- Outside Boundary Condition
  {bcc01517-700d-4b2e-9384-4ce798593993}, !- Outside Boundary Condition Object
  NoSun,                                  !- Sun Exposure
  NoWind,                                 !- Wind Exposure
  ,                                       !- View Factor to Ground
  ,                                       !- Number of Vertices
  45.3375, 28.7006, 6.7056,               !- X,Y,Z Vertex 1 {m}
  45.3375, 4.5732, 6.7056,                !- X,Y,Z Vertex 2 {m}
  4.5732, 4.5732, 6.7056,                 !- X,Y,Z Vertex 3 {m}
  4.5732, 28.7006, 6.7056;                !- X,Y,Z Vertex 4 {m}

OS:Construction,
  {df0928b5-c99f-4ad7-ba45-cf4bd2643bb7}, !- Handle
  DropCeiling,                            !- Name
  ,                                       !- Surface Rendering Name
  {bd50f446-2799-4977-868d-5ba346520c3b}; !- Layer 1

OS:Material,
  {bd50f446-2799-4977-868d-5ba346520c3b}, !- Handle
  Std AC02,                               !- Name
  MediumSmooth,                           !- Roughness
  0.0127,                                 !- Thickness {m}
  0.057,                                  !- Conductivity {W/m-K}
  288,                                    !- Density {kg/m3}
  1339,                                   !- Specific Heat {J/kg-K}
  0.9,                                    !- Thermal Absorptance
  0.7,                                    !- Solar Absorptance
  0.2;                                    !- Visible Absorptance

OS:Space,
  {6112deb1-ddcc-4b60-b2ae-369a79be6e50}, !- Handle
  MidFloor_Plenum,                        !- Name
  {2a05cd36-8973-42e9-951b-b1db34a3c69b}, !- Space Type Name
  ,                                       !- Default Construction Set Name
  ,                                       !- Default Schedule Set Name
  0,                                      !- Direction of Relative North {deg}
  0,                                      !- X Origin {m}
  0,                                      !- Y Origin {m}
  0,                                      !- Z Origin {m}
  {f74cbf62-1f69-4a54-ae1b-9081dcf89676}, !- Building Story Name
  {8ffce9a0-ed62-47e2-aa47-ef8028d2f4bd}, !- Thermal Zone Name
  No;                                     !- Part of Total Floor Area

OS:Surface,
  {340cdf39-91dd-418b-9048-5f297f9174bf}, !- Handle
  Perimeter_mid_ZN_2_Wall_South,          !- Name
  Wall,                                   !- Surface Type
  {fcd6a567-5e74-47ef-83bb-9d1133636054}, !- Construction Name
  {edf2dca2-036b-4213-8c8e-9425b6e07876}, !- Space Name
  Surface,                                !- Outside Boundary Condition
  {3b9af6c8-ad2a-4192-adf7-7f5db74465a6}, !- Outside Boundary Condition Object
  NoSun,                                  !- Sun Exposure
  NoWind,                                 !- Wind Exposure
  ,                                       !- View Factor to Ground
  ,                                       !- Number of Vertices
  45.3375, 4.5732, 6.7056,                !- X,Y,Z Vertex 1 {m}
  45.3375, 4.5732, 3.9624,                !- X,Y,Z Vertex 2 {m}
  49.911, 0, 3.9624,                      !- X,Y,Z Vertex 3 {m}
  49.911, 0, 6.7056;                      !- X,Y,Z Vertex 4 {m}

OS:Construction,
  {fcd6a567-5e74-47ef-83bb-9d1133636054}, !- Handle
  int-walls,                              !- Name
  ,                                       !- Surface Rendering Name
  {c6617f96-5cad-41eb-b49c-0e42c34fc7f6}, !- Layer 1
  {c6617f96-5cad-41eb-b49c-0e42c34fc7f6}; !- Layer 2

OS:Material,
  {c6617f96-5cad-41eb-b49c-0e42c34fc7f6}, !- Handle
  1/2IN Gypsum,                           !- Name
  Smooth,                                 !- Roughness
  0.0127,                                 !- Thickness {m}
  0.16,                                   !- Conductivity {W/m-K}
  784.9,                                  !- Density {kg/m3}
  830,                                    !- Specific Heat {J/kg-K}
  0.9,                                    !- Thermal Absorptance
  0.92,                                   !- Solar Absorptance
  0.92;                                   !- Visible Absorptance

OS:Space,
  {edf2dca2-036b-4213-8c8e-9425b6e07876}, !- Handle
  Perimeter_mid_ZN_2,                     !- Name
  {2a05cd36-8973-42e9-951b-b1db34a3c69b}, !- Space Type Name
  ,                                       !- Default Construction Set Name
  ,                                       !- Default Schedule Set Name
  0,                                      !- Direction of Relative North {deg}
  0,                                      !- X Origin {m}
  0,                                      !- Y Origin {m}
  0,                                      !- Z Origin {m}
  {f74cbf62-1f69-4a54-ae1b-9081dcf89676}, !- Building Story Name
  {e99f1b74-ab74-4358-b5fb-397ba39afa54}, !- Thermal Zone Name
  Yes,                                    !- Part of Total Floor Area
  {aaff88fa-d4ac-475d-95dd-febd93975261}; !- Design Specification Outdoor Air Object Name

OS:ThermostatSetpoint:DualSetpoint,
  {6a63aa4a-9974-4b0c-8bae-9199866f8b62}, !- Handle
  {7690ee4e-2ee9-4ea1-8d6c-f5b5894a8e01}, !- Name
  {3b7673ce-3a8e-4da9-bf0c-3d44418311d0}, !- Heating Setpoint Temperature Schedule Name
  {13c30a00-68ba-4767-ab1e-e8e37f29c4f4}; !- Cooling Setpoint Temperature Schedule Name

OS:Schedule:Compact,
  {3b7673ce-3a8e-4da9-bf0c-3d44418311d0}, !- Handle
  HTGSETP_SCH,                            !- Name
  {4a824fc0-24f6-4976-8cdf-1dc2896cea04}, !- Schedule Type Limits Name
  Through: 12/31,                         !- Field 1
  For: Weekdays,                          !- Field 2
  Until: 06:00,                           !- Field 3
  15.6,                                   !- Field 4
  Until: 22:00,                           !- Field 5
  21.0,                                   !- Field 6
  Until: 24:00,                           !- Field 7
  15.6,                                   !- Field 8
  For SummerDesignDay,                    !- Field 9
  Until: 24:00,                           !- Field 10
  15.6,                                   !- Field 11
  For: Saturday,                          !- Field 12
  Until: 06:00,                           !- Field 13
  15.6,                                   !- Field 14
  Until: 18:00,                           !- Field 15
  21.0,                                   !- Field 16
  Until: 24:00,                           !- Field 17
  15.6,                                   !- Field 18
  For: WinterDesignDay,                   !- Field 19
  Until: 24:00,                           !- Field 20
  21.0,                                   !- Field 21
  For: AllOtherDays,                      !- Field 22
  Until: 24:00,                           !- Field 23
  15.6;                                   !- Field 24

OS:ScheduleTypeLimits,
  {4a824fc0-24f6-4976-8cdf-1dc2896cea04}, !- Handle
  Temperature,                            !- Name
  -60,                                    !- Lower Limit Value {BasedOnField A4}
  200,                                    !- Upper Limit Value {BasedOnField A4}
  CONTINUOUS,                             !- Numeric Type
  Temperature;                            !- Unit Type

OS:Schedule:Compact,
  {13c30a00-68ba-4767-ab1e-e8e37f29c4f4}, !- Handle
  CLGSETP_SCH,                            !- Name
  {4a824fc0-24f6-4976-8cdf-1dc2896cea04}, !- Schedule Type Limits Name
  Through: 12/31,                         !- Field 1
  For: Weekdays SummerDesignDay,          !- Field 2
  Until: 06:00,                           !- Field 3
  26.7,                                   !- Field 4
  Until: 22:00,                           !- Field 5
  24.0,                                   !- Field 6
  Until: 24:00,                           !- Field 7
  26.7,                                   !- Field 8
  For: Saturday,                          !- Field 9
  Until: 06:00,                           !- Field 10
  26.7,                                   !- Field 11
  Until: 18:00,                           !- Field 12
  24.0,                                   !- Field 13
  Until: 24:00,                           !- Field 14
  26.7,                                   !- Field 15
  For WinterDesignDay,                    !- Field 16
  Until: 24:00,                           !- Field 17
  26.7,                                   !- Field 18
  For: AllOtherDays,                      !- Field 19
  Until: 24:00,                           !- Field 20
  26.7;                                   !- Field 21

OS:SpaceInfiltration:DesignFlowRate,
  {a02a2be4-dd0c-48d2-a35e-6f7af10420c8}, !- Handle
  Perimeter_bot_ZN_4_Infiltration,        !- Name
  {8c09b272-bacb-4895-a105-0eabd9d18214}, !- Space or SpaceType Name
  {09cee798-275c-40b3-a200-881651f3aec6}, !- Schedule Name
  Flow/ExteriorArea,                      !- Design Flow Rate Calculation Method
  ,                                       !- Design Flow Rate {m3/s}
  ,                                       !- Flow per Space Floor Area {m3/s-m2}
  0.000302,                               !- Flow per Exterior Surface Area {m3/s-m2}
  ,                                       !- Air Changes per Hour {1/hr}
  1,                                      !- Constant Term Coefficient
  0,                                      !- Temperature Term Coefficient
  0,                                      !- Velocity Term Coefficient
  0;                                      !- Velocity Squared Term Coefficient

OS:Space,
  {8c09b272-bacb-4895-a105-0eabd9d18214}, !- Handle
  Perimeter_bot_ZN_4,                     !- Name
  {2a05cd36-8973-42e9-951b-b1db34a3c69b}, !- Space Type Name
  ,                                       !- Default Construction Set Name
  ,                                       !- Default Schedule Set Name
  0,                                      !- Direction of Relative North {deg}
  0,                                      !- X Origin {m}
  0,                                      !- Y Origin {m}
  0,                                      !- Z Origin {m}
  {f74cbf62-1f69-4a54-ae1b-9081dcf89676}, !- Building Story Name
  {ea65aa38-4569-4c4e-a15e-acd15ce576ab}, !- Thermal Zone Name
  Yes,                                    !- Part of Total Floor Area
  {722a1453-2225-4737-8050-a686c0fc487f}; !- Design Specification Outdoor Air Object Name

OS:ThermostatSetpoint:DualSetpoint,
  {b4a8a498-2566-4131-8c6e-c0ff083e1c4a}, !- Handle
  {fa75b6f9-c4c0-4606-8bda-b87ccec8aed0}, !- Name
  {3b7673ce-3a8e-4da9-bf0c-3d44418311d0}, !- Heating Setpoint Temperature Schedule Name
  {13c30a00-68ba-4767-ab1e-e8e37f29c4f4}; !- Cooling Setpoint Temperature Schedule Name

OS:Schedule:Compact,
  {09cee798-275c-40b3-a200-881651f3aec6}, !- Handle
  INFIL_QUARTER_ON_SCH,                   !- Name
  {e35610ac-22c8-4d32-8938-b560864bbf2f}, !- Schedule Type Limits Name
  Through: 12/31,                         !- Field 1
  For: Weekdays SummerDesignDay,          !- Field 2
  Until: 06:00,                           !- Field 3
  1.0,                                    !- Field 4
  Until: 22:00,                           !- Field 5
  0.25,                                   !- Field 6
  Until: 24:00,                           !- Field 7
  1.0,                                    !- Field 8
  For: Saturday WinterDesignDay,          !- Field 9
  Until: 06:00,                           !- Field 10
  1.0,                                    !- Field 11
  Until: 18:00,                           !- Field 12
  0.25,                                   !- Field 13
  Until: 24:00,                           !- Field 14
  1.0,                                    !- Field 15
  For: Sunday Holidays AllOtherDays,      !- Field 16
  Until: 24:00,                           !- Field 17
  1.0;                                    !- Field 18

OS:ScheduleTypeLimits,
  {e35610ac-22c8-4d32-8938-b560864bbf2f}, !- Handle
  Fraction,                               !- Name
  0,                                      !- Lower Limit Value {BasedOnField A4}
  1,                                      !- Upper Limit Value {BasedOnField A4}
  CONTINUOUS;                             !- Numeric Type

OS:ThermostatSetpoint:DualSetpoint,
  {8f0b22f7-03fa-4df3-8c17-700b0fe1d3ce}, !- Handle
  {13f85b38-aaa0-4f2d-a6c6-f498927c49c2}, !- Name
  {3b7673ce-3a8e-4da9-bf0c-3d44418311d0}, !- Heating Setpoint Temperature Schedule Name
  {13c30a00-68ba-4767-ab1e-e8e37f29c4f4}; !- Cooling Setpoint Temperature Schedule Name

OS:Material:NoMass,
  {ee85f2c3-4c11-438d-84fa-71dd5d5e33a1}, !- Handle
  MAT-AIR-WALL,                           !- Name
  Rough,                                  !- Roughness
  0.2079491,                              !- Thermal Resistance {m2-K/W}
  0.9,                                    !- Thermal Absorptance
  0.7;                                    !- Solar Absorptance

OS:Surface,
  {1e9e0bd5-f73e-4551-9629-befadbe8c829}, !- Handle
  Core_top_ZN_5_Wall_North,               !- Name
  Wall,                                   !- Surface Type
  {fcd6a567-5e74-47ef-83bb-9d1133636054}, !- Construction Name
  {9f977334-7ff0-42bb-b3f0-cee2cff1e974}, !- Space Name
  Surface,                                !- Outside Boundary Condition
  {6537b539-05dc-4c5f-a834-f90bda3b7a89}, !- Outside Boundary Condition Object
  NoSun,                                  !- Sun Exposure
  NoWind,                                 !- Wind Exposure
  ,                                       !- View Factor to Ground
  ,                                       !- Number of Vertices
  45.3375, 28.7006, 10.668,               !- X,Y,Z Vertex 1 {m}
  45.3375, 28.7006, 7.9248,               !- X,Y,Z Vertex 2 {m}
  4.5732, 28.7006, 7.9248,                !- X,Y,Z Vertex 3 {m}
  4.5732, 28.7006, 10.668;                !- X,Y,Z Vertex 4 {m}

OS:Space,
  {9f977334-7ff0-42bb-b3f0-cee2cff1e974}, !- Handle
  Core_top,                               !- Name
  {2a05cd36-8973-42e9-951b-b1db34a3c69b}, !- Space Type Name
  ,                                       !- Default Construction Set Name
  ,                                       !- Default Schedule Set Name
  0,                                      !- Direction of Relative North {deg}
  0,                                      !- X Origin {m}
  0,                                      !- Y Origin {m}
  0,                                      !- Z Origin {m}
  {f74cbf62-1f69-4a54-ae1b-9081dcf89676}, !- Building Story Name
  {2753e4b4-e102-4295-b3c2-10394080032a}, !- Thermal Zone Name
  Yes,                                    !- Part of Total Floor Area
  {91e354cd-9156-4a7c-ad60-6206caabb51f}; !- Design Specification Outdoor Air Object Name

OS:ThermostatSetpoint:DualSetpoint,
  {58f12952-cf80-4597-b5a9-0dfcfb3db6a7}, !- Handle
  {b17154e1-4962-46f3-86d8-705a2cb602ff}, !- Name
  {3b7673ce-3a8e-4da9-bf0c-3d44418311d0}, !- Heating Setpoint Temperature Schedule Name
  {13c30a00-68ba-4767-ab1e-e8e37f29c4f4}; !- Cooling Setpoint Temperature Schedule Name

OS:Surface,
  {60f2214b-d016-4539-bd9f-9e00d3f06d56}, !- Handle
  Perimeter_top_Plenum_Wall_West,         !- Name
  Wall,                                   !- Surface Type
  {511ba08e-6b9b-45b9-840f-0f7d31b561af}, !- Construction Name
  {2f6533bb-603b-440a-a415-40bf3820c553}, !- Space Name
  Outdoors,                               !- Outside Boundary Condition
  ,                                       !- Outside Boundary Condition Object
  SunExposed,                             !- Sun Exposure
  WindExposed,                            !- Wind Exposure
  ,                                       !- View Factor to Ground
  ,                                       !- Number of Vertices
  0, 33.2738, 11.8872,                    !- X,Y,Z Vertex 1 {m}
  0, 33.2738, 10.668,                     !- X,Y,Z Vertex 2 {m}
  0, 0, 10.668,                           !- X,Y,Z Vertex 3 {m}
  0, 0, 11.8872;                          !- X,Y,Z Vertex 4 {m}

OS:Construction,
  {511ba08e-6b9b-45b9-840f-0f7d31b561af}, !- Handle
  Steel Frame Non-res Ext Wall,           !- Name
  ,                                       !- Surface Rendering Name
  {0918c46f-b335-4658-b64b-e822ff3d6f46}, !- Layer 1
  {151b7a10-9c67-43aa-b3d2-8e92a1106736}, !- Layer 2
  {c6617f96-5cad-41eb-b49c-0e42c34fc7f6}; !- Layer 3

OS:Material,
  {0918c46f-b335-4658-b64b-e822ff3d6f46}, !- Handle
  Wood Siding,                            !- Name
  MediumSmooth,                           !- Roughness
  0.01,                                   !- Thickness {m}
  0.11,                                   !- Conductivity {W/m-K}
  544.62,                                 !- Density {kg/m3}
  1210,                                   !- Specific Heat {J/kg-K}
  0.9,                                    !- Thermal Absorptance
  0.78,                                   !- Solar Absorptance
  0.78;                                   !- Visible Absorptance

OS:Material,
  {151b7a10-9c67-43aa-b3d2-8e92a1106736}, !- Handle
  Steel Frame NonRes Wall Insulation,     !- Name
  MediumRough,                            !- Roughness
  0.0870564552646045,                     !- Thickness {m}
  0.049,                                  !- Conductivity {W/m-K}
  265,                                    !- Density {kg/m3}
  836.8,                                  !- Specific Heat {J/kg-K}
  0.9,                                    !- Thermal Absorptance
  0.7,                                    !- Solar Absorptance
  0.7;                                    !- Visible Absorptance

OS:Space,
  {2f6533bb-603b-440a-a415-40bf3820c553}, !- Handle
  TopFloor_Plenum,                        !- Name
  {a14f99be-ea15-4e75-91a8-1a3ea510d934}, !- Space Type Name
  ,                                       !- Default Construction Set Name
  ,                                       !- Default Schedule Set Name
  0,                                      !- Direction of Relative North {deg}
  0,                                      !- X Origin {m}
  0,                                      !- Y Origin {m}
  0,                                      !- Z Origin {m}
  {f74cbf62-1f69-4a54-ae1b-9081dcf89676}, !- Building Story Name
  ,                                       !- Thermal Zone Name
  No;                                     !- Part of Total Floor Area

OS:ElectricEquipment:Definition,
  {fcacec91-4abb-4ed5-b411-ea06513958f7}, !- Handle
  Perimeter_bot_ZN_3_PlugMisc_Equip Definition, !- Name
  Watts/Area,                             !- Design Level Calculation Method
  ,                                       !- Design Level {W}
  10.76,                                  !- Watts per Space Floor Area {W/m2}
  ,                                       !- Watts per Person {W/person}
  0,                                      !- Fraction Latent
  0.5,                                    !- Fraction Radiant
  0;                                      !- Fraction Lost

OS:ElectricEquipment,
  {d09bb095-7e4a-4abc-96ae-544038c30696}, !- Handle
  Perimeter_bot_ZN_3_PlugMisc_Equip,      !- Name
  {fcacec91-4abb-4ed5-b411-ea06513958f7}, !- Electric Equipment Definition Name
  {cb15a183-8b5f-46c7-ab44-b648b7f79045}, !- Space or SpaceType Name
  {6dc3af68-c577-47a2-abb8-a190dd049f8a}, !- Schedule Name
  ,                                       !- Multiplier
  General;                                !- End-Use Subcategory

OS:Space,
  {cb15a183-8b5f-46c7-ab44-b648b7f79045}, !- Handle
  Perimeter_bot_ZN_3,                     !- Name
  {2a05cd36-8973-42e9-951b-b1db34a3c69b}, !- Space Type Name
  ,                                       !- Default Construction Set Name
  ,                                       !- Default Schedule Set Name
  0,                                      !- Direction of Relative North {deg}
  0,                                      !- X Origin {m}
  0,                                      !- Y Origin {m}
  0,                                      !- Z Origin {m}
  {f74cbf62-1f69-4a54-ae1b-9081dcf89676}, !- Building Story Name
  {8ffce9a0-ed62-47e2-aa47-ef8028d2f4bd}, !- Thermal Zone Name
  Yes,                                    !- Part of Total Floor Area
  {da787367-c940-4311-9747-400ae2d6637c}; !- Design Specification Outdoor Air Object Name

OS:ThermostatSetpoint:DualSetpoint,
  {899eeb76-f439-4abf-810e-c95190970405}, !- Handle
  {0578e6bf-1a04-49dd-b665-212a79e63022}, !- Name
  {3b7673ce-3a8e-4da9-bf0c-3d44418311d0}, !- Heating Setpoint Temperature Schedule Name
  {13c30a00-68ba-4767-ab1e-e8e37f29c4f4}; !- Cooling Setpoint Temperature Schedule Name

OS:Schedule:Compact,
  {6dc3af68-c577-47a2-abb8-a190dd049f8a}, !- Handle
  BLDG_EQUIP_SCH,                         !- Name
  {e35610ac-22c8-4d32-8938-b560864bbf2f}, !- Schedule Type Limits Name
  Through: 12/31,                         !- Field 1
  For: Weekdays,                          !- Field 2
  Until: 08:00,                           !- Field 3
  0.40,                                   !- Field 4
  Until: 12:00,                           !- Field 5
  0.90,                                   !- Field 6
  Until: 13:00,                           !- Field 7
  0.80,                                   !- Field 8
  Until: 17:00,                           !- Field 9
  0.90,                                   !- Field 10
  Until: 18:00,                           !- Field 11
  0.80,                                   !- Field 12
  Until: 20:00,                           !- Field 13
  0.60,                                   !- Field 14
  Until: 22:00,                           !- Field 15
  0.50,                                   !- Field 16
  Until: 24:00,                           !- Field 17
  0.40,                                   !- Field 18
  For: Saturday,                          !- Field 19
  Until: 06:00,                           !- Field 20
  0.30,                                   !- Field 21
  Until: 08:00,                           !- Field 22
  0.4,                                    !- Field 23
  Until: 14:00,                           !- Field 24
  0.5,                                    !- Field 25
  Until: 17:00,                           !- Field 26
  0.35,                                   !- Field 27
  Until: 24:00,                           !- Field 28
  0.30,                                   !- Field 29
  For: SummerDesignDay,                   !- Field 30
  Until: 24:00,                           !- Field 31
  1.0,                                    !- Field 32
  For: WinterDesignDay,                   !- Field 33
  Until: 24:00,                           !- Field 34
  0.0,                                    !- Field 35
  For: AllOtherDays,                      !- Field 36
  Until: 24:00,                           !- Field 37
  0.30;                                   !- Field 38

OS:Curve:Biquadratic,
  {522306ff-a6e6-442c-a326-4674e5b332ba}, !- Handle
  Measured_CoolCStandard10Ton_EIRFT,      !- Name
  0.9847,                                 !- Coefficient1 Constant
  -0.04285,                               !- Coefficient2 x
  0.0013562,                              !- Coefficient3 x**2
  0.009934,                               !- Coefficient4 y
  0.0006398,                              !- Coefficient5 y**2
  -0.001169,                              !- Coefficient6 x*y
  11.1,                                   !- Minimum Value of x {BasedOnField A2}
  29.4,                                   !- Maximum Value of x {BasedOnField A2}
  10,                                     !- Minimum Value of y {BasedOnField A3}
  50.3;                                   !- Maximum Value of y {BasedOnField A3}

OS:Surface,
  {f29d763f-51f1-4f1b-9563-6521883cb054}, !- Handle
  Perimeter_mid_ZN_3_Ceiling,             !- Name
  RoofCeiling,                            !- Surface Type
  {df0928b5-c99f-4ad7-ba45-cf4bd2643bb7}, !- Construction Name
  {7ff54a21-ac25-4200-8d46-8dcc48ce91aa}, !- Space Name
  Surface,                                !- Outside Boundary Condition
  {0aaff120-e2db-495d-81a7-c78955abbffc}, !- Outside Boundary Condition Object
  NoSun,                                  !- Sun Exposure
  NoWind,                                 !- Wind Exposure
  ,                                       !- View Factor to Ground
  ,                                       !- Number of Vertices
  45.3375, 28.7006, 6.7056,               !- X,Y,Z Vertex 1 {m}
  49.911, 33.2738, 6.7056,                !- X,Y,Z Vertex 2 {m}
  0, 33.2738, 6.7056,                     !- X,Y,Z Vertex 3 {m}
  4.5732, 28.7006, 6.7056;                !- X,Y,Z Vertex 4 {m}

OS:Space,
  {7ff54a21-ac25-4200-8d46-8dcc48ce91aa}, !- Handle
  Perimeter_mid_ZN_3,                     !- Name
  {2a05cd36-8973-42e9-951b-b1db34a3c69b}, !- Space Type Name
  ,                                       !- Default Construction Set Name
  ,                                       !- Default Schedule Set Name
  0,                                      !- Direction of Relative North {deg}
  0,                                      !- X Origin {m}
  0,                                      !- Y Origin {m}
  0,                                      !- Z Origin {m}
  {f74cbf62-1f69-4a54-ae1b-9081dcf89676}, !- Building Story Name
  {8ffce9a0-ed62-47e2-aa47-ef8028d2f4bd}, !- Thermal Zone Name
  Yes,                                    !- Part of Total Floor Area
  {f00543b9-9196-40f5-803c-ab58c92754d9}; !- Design Specification Outdoor Air Object Name

OS:ThermostatSetpoint:DualSetpoint,
  {e79e04b8-a515-4df5-a410-f67028609b14}, !- Handle
  {295b2857-bdbe-4a5b-ae65-0f17a23111b4}, !- Name
  {3b7673ce-3a8e-4da9-bf0c-3d44418311d0}, !- Heating Setpoint Temperature Schedule Name
  {13c30a00-68ba-4767-ab1e-e8e37f29c4f4}; !- Cooling Setpoint Temperature Schedule Name

OS:ElectricEquipment:Definition,
  {13dadab8-3e25-4931-aa00-4105cade79e9}, !- Handle
  Perimeter_bot_ZN_1_PlugMisc_Equip Definition, !- Name
  Watts/Area,                             !- Design Level Calculation Method
  ,                                       !- Design Level {W}
  10.76,                                  !- Watts per Space Floor Area {W/m2}
  ,                                       !- Watts per Person {W/person}
  0,                                      !- Fraction Latent
  0.5,                                    !- Fraction Radiant
  0;                                      !- Fraction Lost

OS:ElectricEquipment,
  {ab91e292-3185-40fe-8cab-049520e31803}, !- Handle
  Perimeter_bot_ZN_1_PlugMisc_Equip,      !- Name
  {13dadab8-3e25-4931-aa00-4105cade79e9}, !- Electric Equipment Definition Name
  {fb80e830-9e7d-4a27-9a12-4a9948bfaea9}, !- Space or SpaceType Name
  {6dc3af68-c577-47a2-abb8-a190dd049f8a}, !- Schedule Name
  ,                                       !- Multiplier
  General;                                !- End-Use Subcategory

OS:Space,
  {fb80e830-9e7d-4a27-9a12-4a9948bfaea9}, !- Handle
  Perimeter_bot_ZN_1,                     !- Name
  {2a05cd36-8973-42e9-951b-b1db34a3c69b}, !- Space Type Name
  ,                                       !- Default Construction Set Name
  ,                                       !- Default Schedule Set Name
  0,                                      !- Direction of Relative North {deg}
  0,                                      !- X Origin {m}
  0,                                      !- Y Origin {m}
  0,                                      !- Z Origin {m}
  {f74cbf62-1f69-4a54-ae1b-9081dcf89676}, !- Building Story Name
  {ff80014f-9f9f-4d36-bdcb-f073df01ac58}, !- Thermal Zone Name
  Yes,                                    !- Part of Total Floor Area
  {f253bb70-e171-4288-8f3b-6a1794886998}; !- Design Specification Outdoor Air Object Name

OS:Surface,
  {1bc170be-2015-4c03-9ab8-f604ae43b406}, !- Handle
  Core_bot_ZN_5_Wall_North,               !- Name
  Wall,                                   !- Surface Type
  {fcd6a567-5e74-47ef-83bb-9d1133636054}, !- Construction Name
  {86ad93e3-363c-4edb-8671-15e03d951a04}, !- Space Name
  Surface,                                !- Outside Boundary Condition
  {9b3d24cc-4f83-43f1-85df-684a3807780e}, !- Outside Boundary Condition Object
  NoSun,                                  !- Sun Exposure
  NoWind,                                 !- Wind Exposure
  ,                                       !- View Factor to Ground