
OS:Version,
  {747d1a2f-d12c-405e-9bff-4d42945b33a7}, !- Handle
  1.8.0;                                  !- Version Identifier

OS:Site,
  {b67b3002-da54-4639-aff0-a9890bbbc563}, !- Handle
  USA IL-CHICAGO-OHARE,                   !- Name
  41.77,                                  !- Latitude {deg}
  -87.75,                                 !- Longitude {deg}
  -6,                                     !- Time Zone {hr}
  190,                                    !- Elevation {m}
  City;                                   !- Terrain

OS:SimulationControl,
  {bd376cf5-3f45-46a8-a03f-ea13c445b70a}, !- Handle
  Yes,                                    !- Do Zone Sizing Calculation
  Yes,                                    !- Do System Sizing Calculation
  Yes,                                    !- Do Plant Sizing Calculation
  No,                                     !- Run Simulation for Sizing Periods
  Yes,                                    !- Run Simulation for Weather File Run Periods
  0.04,                                   !- Loads Convergence Tolerance Value
  0.2,                                    !- Temperature Convergence Tolerance Value {deltaC}
  FullInteriorAndExterior,                !- Solar Distribution
  25,                                     !- Maximum Number of Warmup Days
  6;                                      !- Minimum Number of Warmup Days

OS:Lights:Definition,
  {5c254287-f8bb-4266-b47a-8bf7d3f1e9e4}, !- Handle
  Core_mid_Lights Definition,             !- Name
  Watts/Area,                             !- Design Level Calculation Method
  ,                                       !- Lighting Level {W}
  10.76,                                  !- Watts per Space Floor Area {W/m2}
  ,                                       !- Watts per Person {W/person}
  0.4,                                    !- Fraction Radiant
  0.2,                                    !- Fraction Visible
  0.4,                                    !- Return Air Fraction
  No;                                     !- Return Air Fraction Calculated from Plenum Temperature

OS:Lights,
  {24377881-bd23-4d8b-8d5a-0562271f39f6}, !- Handle
  Core_mid_Lights,                        !- Name
  {5c254287-f8bb-4266-b47a-8bf7d3f1e9e4}, !- Lights Definition Name
  {cce9f857-b516-4684-837a-ff3b6bbd6aec}, !- Space or SpaceType Name
  {d1ae1fc7-df98-4c1f-b8c0-7057c35655f4}, !- Schedule Name
  1,                                      !- Fraction Replaceable
  ,                                       !- Multiplier
  General;                                !- End-Use Subcategory

OS:Space,
  {cce9f857-b516-4684-837a-ff3b6bbd6aec}, !- Handle
  Core_mid,                               !- Name
  {53bde7dd-8796-4020-834c-2f015f284434}, !- Space Type Name
  ,                                       !- Default Construction Set Name
  ,                                       !- Default Schedule Set Name
  0,                                      !- Direction of Relative North {deg}
  0,                                      !- X Origin {m}
  0,                                      !- Y Origin {m}
  0,                                      !- Z Origin {m}
  {d8310039-fa2b-44bb-a846-911e58a99501}, !- Building Story Name
  {c19b5a07-1547-497f-b528-df76701ff683}, !- Thermal Zone Name
  Yes,                                    !- Part of Total Floor Area
  {2ac87b80-c002-4495-9b46-efc84d7d186d}; !- Design Specification Outdoor Air Object Name

OS:ThermostatSetpoint:DualSetpoint,
  {11067cb4-6fa7-42d3-bc7c-17997c662cb6}, !- Handle
  {440357b7-1652-4f08-bf41-ecc5f0d2fdf4}, !- Name
  {29e21bdb-1b4d-416b-bcf2-24f80e35082d}, !- Heating Setpoint Temperature Schedule Name
  {46f9bcaa-075b-41b4-bc01-b34df9042595}; !- Cooling Setpoint Temperature Schedule Name

OS:Schedule:Compact,
  {29e21bdb-1b4d-416b-bcf2-24f80e35082d}, !- Handle
  HTGSETP_SCH,                            !- Name
  {92e304d6-3ed6-4abe-9994-397030633b3a}, !- Schedule Type Limits Name
  Through: 12/31,                         !- Field 1
  For: Weekdays,                          !- Field 2
  Until: 06:00,                           !- Field 3
  15.6,                                   !- Field 4
  Until: 22:00,                           !- Field 5
  21.0,                                   !- Field 6
  Until: 24:00,                           !- Field 7
  15.6,                                   !- Field 8
  For SummerDesignDay,                    !- Field 9
  Until: 24:00,                           !- Field 10
  15.6,                                   !- Field 11
  For: Saturday,                          !- Field 12
  Until: 06:00,                           !- Field 13
  15.6,                                   !- Field 14
  Until: 18:00,                           !- Field 15
  21.0,                                   !- Field 16
  Until: 24:00,                           !- Field 17
  15.6,                                   !- Field 18
  For: WinterDesignDay,                   !- Field 19
  Until: 24:00,                           !- Field 20
  21.0,                                   !- Field 21
  For: AllOtherDays,                      !- Field 22
  Until: 24:00,                           !- Field 23
  15.6;                                   !- Field 24

OS:ScheduleTypeLimits,
  {92e304d6-3ed6-4abe-9994-397030633b3a}, !- Handle
  Temperature,                            !- Name
  -60,                                    !- Lower Limit Value {BasedOnField A4}
  200,                                    !- Upper Limit Value {BasedOnField A4}
  CONTINUOUS,                             !- Numeric Type
  Temperature;                            !- Unit Type

OS:Schedule:Compact,
  {46f9bcaa-075b-41b4-bc01-b34df9042595}, !- Handle
  CLGSETP_SCH,                            !- Name
  {92e304d6-3ed6-4abe-9994-397030633b3a}, !- Schedule Type Limits Name
  Through: 12/31,                         !- Field 1
  For: Weekdays SummerDesignDay,          !- Field 2
  Until: 06:00,                           !- Field 3
  26.7,                                   !- Field 4
  Until: 22:00,                           !- Field 5
  24.0,                                   !- Field 6
  Until: 24:00,                           !- Field 7
  26.7,                                   !- Field 8
  For: Saturday,                          !- Field 9
  Until: 06:00,                           !- Field 10
  26.7,                                   !- Field 11
  Until: 18:00,                           !- Field 12
  24.0,                                   !- Field 13
  Until: 24:00,                           !- Field 14
  26.7,                                   !- Field 15
  For WinterDesignDay,                    !- Field 16
  Until: 24:00,                           !- Field 17
  26.7,                                   !- Field 18
  For: AllOtherDays,                      !- Field 19
  Until: 24:00,                           !- Field 20
  26.7;                                   !- Field 21

OS:Schedule:Compact,
  {d1ae1fc7-df98-4c1f-b8c0-7057c35655f4}, !- Handle
  BLDG_LIGHT_SCH,                         !- Name
  {680b6970-40aa-4b6a-861a-c2733670b4ec}, !- Schedule Type Limits Name
  Through: 12/31,                         !- Field 1
  For: Weekdays,                          !- Field 2
  Until: 05:00,                           !- Field 3
  0.05,                                   !- Field 4
  Until: 07:00,                           !- Field 5
  0.1,                                    !- Field 6
  Until: 08:00,                           !- Field 7
  0.3,                                    !- Field 8
  Until: 17:00,                           !- Field 9
  0.9,                                    !- Field 10
  Until: 18:00,                           !- Field 11
  0.7,                                    !- Field 12
  Until: 20:00,                           !- Field 13
  0.5,                                    !- Field 14
  Until: 22:00,                           !- Field 15
  0.3,                                    !- Field 16
  Until: 23:00,                           !- Field 17
  0.1,                                    !- Field 18
  Until: 24:00,                           !- Field 19
  0.05,                                   !- Field 20
  For: Saturday,                          !- Field 21
  Until: 06:00,                           !- Field 22
  0.05,                                   !- Field 23
  Until: 08:00,                           !- Field 24
  0.1,                                    !- Field 25
  Until: 14:00,                           !- Field 26
  0.5,                                    !- Field 27
  Until: 17:00,                           !- Field 28
  0.15,                                   !- Field 29
  Until: 24:00,                           !- Field 30
  0.05,                                   !- Field 31
  For: SummerDesignDay,                   !- Field 32
  Until: 24:00,                           !- Field 33
  1.0,                                    !- Field 34
  For: WinterDesignDay,                   !- Field 35
  Until: 24:00,                           !- Field 36
  0.0,                                    !- Field 37
  For: AllOtherDays,                      !- Field 38
  Until: 24:00,                           !- Field 39
  0.05;                                   !- Field 40

OS:ScheduleTypeLimits,
  {680b6970-40aa-4b6a-861a-c2733670b4ec}, !- Handle
  Fraction,                               !- Name
  0,                                      !- Lower Limit Value {BasedOnField A4}
  1,                                      !- Upper Limit Value {BasedOnField A4}
  CONTINUOUS;                             !- Numeric Type

OS:SpaceInfiltration:DesignFlowRate,
  {4ca8a7a0-427e-4900-95c9-6dbf954d0625}, !- Handle
  MidFloor_Plenum_Infiltration,           !- Name
  {f0999609-00c3-4e11-86e2-bf73b0b7e05c}, !- Space or SpaceType Name
  {841295ea-84a3-4811-9125-522080511a5d}, !- Schedule Name
  Flow/ExteriorArea,                      !- Design Flow Rate Calculation Method
  ,                                       !- Design Flow Rate {m3/s}
  ,                                       !- Flow per Space Floor Area {m3/s-m2}
  0.000302,                               !- Flow per Exterior Surface Area {m3/s-m2}
  ,                                       !- Air Changes per Hour {1/hr}
  1,                                      !- Constant Term Coefficient
  0,                                      !- Temperature Term Coefficient
  0,                                      !- Velocity Term Coefficient
  0;                                      !- Velocity Squared Term Coefficient

OS:Space,
  {f0999609-00c3-4e11-86e2-bf73b0b7e05c}, !- Handle
  MidFloor_Plenum,                        !- Name
  {53bde7dd-8796-4020-834c-2f015f284434}, !- Space Type Name
  ,                                       !- Default Construction Set Name
  ,                                       !- Default Schedule Set Name
  0,                                      !- Direction of Relative North {deg}
  0,                                      !- X Origin {m}
  0,                                      !- Y Origin {m}
  0,                                      !- Z Origin {m}
  {d8310039-fa2b-44bb-a846-911e58a99501}, !- Building Story Name
  {70146cd9-8b56-4cfb-a452-e35370c5e07a}, !- Thermal Zone Name
  No;                                     !- Part of Total Floor Area

OS:Schedule:Compact,
  {841295ea-84a3-4811-9125-522080511a5d}, !- Handle
  INFIL_QUARTER_ON_SCH,                   !- Name
  {680b6970-40aa-4b6a-861a-c2733670b4ec}, !- Schedule Type Limits Name
  Through: 12/31,                         !- Field 1
  For: Weekdays SummerDesignDay,          !- Field 2
  Until: 06:00,                           !- Field 3
  1.0,                                    !- Field 4
  Until: 22:00,                           !- Field 5
  0.25,                                   !- Field 6
  Until: 24:00,                           !- Field 7
  1.0,                                    !- Field 8
  For: Saturday WinterDesignDay,          !- Field 9
  Until: 06:00,                           !- Field 10
  1.0,                                    !- Field 11
  Until: 18:00,                           !- Field 12
  0.25,                                   !- Field 13
  Until: 24:00,                           !- Field 14
  1.0,                                    !- Field 15
  For: Sunday Holidays AllOtherDays,      !- Field 16
  Until: 24:00,                           !- Field 17
  1.0;                                    !- Field 18

OS:Lights:Definition,
  {50068bea-e31c-479b-b23b-78433653d5c4}, !- Handle
  Core_top_Lights Definition,             !- Name
  Watts/Area,                             !- Design Level Calculation Method
  ,                                       !- Lighting Level {W}
  10.76,                                  !- Watts per Space Floor Area {W/m2}
  ,                                       !- Watts per Person {W/person}
  0.4,                                    !- Fraction Radiant
  0.2,                                    !- Fraction Visible
  0.4,                                    !- Return Air Fraction
  No;                                     !- Return Air Fraction Calculated from Plenum Temperature

OS:Lights,
  {f98b7e4f-8b80-45f9-bd95-47cd6b8bb75a}, !- Handle
  Core_top_Lights,                        !- Name
  {50068bea-e31c-479b-b23b-78433653d5c4}, !- Lights Definition Name
  {c3f88abe-664f-4e98-a6d3-2e060f68f40d}, !- Space or SpaceType Name
  {d1ae1fc7-df98-4c1f-b8c0-7057c35655f4}, !- Schedule Name
  1,                                      !- Fraction Replaceable
  ,                                       !- Multiplier
  General;                                !- End-Use Subcategory

OS:Space,
  {c3f88abe-664f-4e98-a6d3-2e060f68f40d}, !- Handle
  Core_top,                               !- Name
  {53bde7dd-8796-4020-834c-2f015f284434}, !- Space Type Name
  ,                                       !- Default Construction Set Name
  ,                                       !- Default Schedule Set Name
  0,                                      !- Direction of Relative North {deg}
  0,                                      !- X Origin {m}
  0,                                      !- Y Origin {m}
  0,                                      !- Z Origin {m}
  {d8310039-fa2b-44bb-a846-911e58a99501}, !- Building Story Name
  {c19b5a07-1547-497f-b528-df76701ff683}, !- Thermal Zone Name
  Yes,                                    !- Part of Total Floor Area
  {425240f9-26ba-4ec1-a115-4449c1945ae7}; !- Design Specification Outdoor Air Object Name

OS:ThermostatSetpoint:DualSetpoint,
  {1ba5ab39-7326-467c-8281-e13da90ec223}, !- Handle
  {91cd168c-6da8-479b-856a-105029451de9}, !- Name
  {29e21bdb-1b4d-416b-bcf2-24f80e35082d}, !- Heating Setpoint Temperature Schedule Name
  {46f9bcaa-075b-41b4-bc01-b34df9042595}; !- Cooling Setpoint Temperature Schedule Name

OS:People:Definition,
  {f68e9166-b028-41f1-add4-e35c14f7eb28}, !- Handle
  Perimeter_mid_ZN_2 People Definition,   !- Name
  Area/Person,                            !- Number of People Calculation Method
  ,                                       !- Number of People {people}
  ,                                       !- People per Space Floor Area {person/m2}
  18.58,                                  !- Space Floor Area per Person {m2/person}
  0.3,                                    !- Fraction Radiant
  ,                                       !- Sensible Heat Fraction
  ,                                       !- Carbon Dioxide Generation Rate {m3/s-W}
  No,                                     !- Enable ASHRAE 55 Comfort Warnings
  ZoneAveraged;                           !- Mean Radiant Temperature Calculation Type

OS:People,
  {d125d508-a21c-4219-a793-c182fa4d0aa8}, !- Handle
  Perimeter_mid_ZN_2 People,              !- Name
  {f68e9166-b028-41f1-add4-e35c14f7eb28}, !- People Definition Name
  {3b818d99-2d31-4c9d-9f05-22cdec99d99b}, !- Space or SpaceType Name
  {97dc4c95-0275-4618-b556-4aa6ce4bab9b}, !- Number of People Schedule Name
  {8b6ee56f-4236-4c20-b0dd-2b005c5cf74f}, !- Activity Level Schedule Name
  ,                                       !- Surface Name/Angle Factor List Name
  {cf82d25c-4085-436d-9965-1bfe6ddcb439}; !- Work Efficiency Schedule Name

OS:Space,
  {3b818d99-2d31-4c9d-9f05-22cdec99d99b}, !- Handle
  Perimeter_mid_ZN_2,                     !- Name
  {53bde7dd-8796-4020-834c-2f015f284434}, !- Space Type Name
  ,                                       !- Default Construction Set Name
  ,                                       !- Default Schedule Set Name
  0,                                      !- Direction of Relative North {deg}
  0,                                      !- X Origin {m}
  0,                                      !- Y Origin {m}
  0,                                      !- Z Origin {m}
  {d8310039-fa2b-44bb-a846-911e58a99501}, !- Building Story Name
  {98034002-f671-47b4-b836-7a6c031fd27b}, !- Thermal Zone Name
  Yes,                                    !- Part of Total Floor Area
  {747463e9-e495-425e-81a3-81eef08877c7}; !- Design Specification Outdoor Air Object Name

OS:ThermostatSetpoint:DualSetpoint,
  {18e3e46a-1c94-4f57-b842-948a852068bf}, !- Handle
  {3472b5a9-f0ca-45ba-8c21-da59dff87728}, !- Name
  {29e21bdb-1b4d-416b-bcf2-24f80e35082d}, !- Heating Setpoint Temperature Schedule Name
  {46f9bcaa-075b-41b4-bc01-b34df9042595}; !- Cooling Setpoint Temperature Schedule Name

OS:Schedule:Compact,
  {97dc4c95-0275-4618-b556-4aa6ce4bab9b}, !- Handle
  BLDG_OCC_SCH,                           !- Name
  {680b6970-40aa-4b6a-861a-c2733670b4ec}, !- Schedule Type Limits Name
  Through: 12/31,                         !- Field 1
  For: SummerDesignDay,                   !- Field 2
  Until: 06:00,                           !- Field 3
  0.0,                                    !- Field 4
  Until: 22:00,                           !- Field 5
  1.0,                                    !- Field 6
  Until: 24:00,                           !- Field 7
  0.05,                                   !- Field 8
  For: Weekdays,                          !- Field 9
  Until: 06:00,                           !- Field 10
  0.0,                                    !- Field 11
  Until: 07:00,                           !- Field 12
  0.1,                                    !- Field 13
  Until: 08:00,                           !- Field 14
  0.2,                                    !- Field 15
  Until: 12:00,                           !- Field 16
  0.95,                                   !- Field 17
  Until: 13:00,                           !- Field 18
  0.5,                                    !- Field 19
  Until: 17:00,                           !- Field 20
  0.95,                                   !- Field 21
  Until: 18:00,                           !- Field 22
  0.7,                                    !- Field 23
  Until: 20:00,                           !- Field 24
  0.4,                                    !- Field 25
  Until: 22:00,                           !- Field 26
  0.1,                                    !- Field 27
  Until: 24:00,                           !- Field 28
  0.05,                                   !- Field 29
  For: Saturday,                          !- Field 30
  Until: 06:00,                           !- Field 31
  0.0,                                    !- Field 32
  Until: 08:00,                           !- Field 33
  0.1,                                    !- Field 34
  Until: 14:00,                           !- Field 35
  0.5,                                    !- Field 36
  Until: 17:00,                           !- Field 37
  0.1,                                    !- Field 38
  Until: 24:00,                           !- Field 39
  0.0,                                    !- Field 40
  For: AllOtherDays,                      !- Field 41
  Until: 24:00,                           !- Field 42
  0.0;                                    !- Field 43

OS:Schedule:Compact,
  {8b6ee56f-4236-4c20-b0dd-2b005c5cf74f}, !- Handle
  ACTIVITY_SCH,                           !- Name
  {4912219a-cd01-4a61-a85f-c6875f44c3b1}, !- Schedule Type Limits Name
  Through: 12/31,                         !- Field 1
  For: AllDays,                           !- Field 2
  Until: 24:00,                           !- Field 3
  120.;                                   !- Field 4

OS:ScheduleTypeLimits,
  {0f31dda6-b065-4944-afcd-ef6692b2aebc}, !- Handle
  {0f25704e-f26c-4196-a53c-279aae5d5209}; !- Name

OS:ScheduleTypeLimits,
  {4912219a-cd01-4a61-a85f-c6875f44c3b1}, !- Handle
  ActivityLevel,                          !- Name
  0,                                      !- Lower Limit Value {BasedOnField A4}
  ,                                       !- Upper Limit Value {BasedOnField A4}
  Continuous,                             !- Numeric Type
  ActivityLevel;                          !- Unit Type

OS:Schedule:Compact,
  {cf82d25c-4085-436d-9965-1bfe6ddcb439}, !- Handle
  WORK_EFF_SCH,                           !- Name
  {680b6970-40aa-4b6a-861a-c2733670b4ec}, !- Schedule Type Limits Name
  Through: 12/31,                         !- Field 1
  For: AllDays,                           !- Field 2
  Until: 24:00,                           !- Field 3
  0.0;                                    !- Field 4

OS:Surface,
  {078dba1b-3476-4470-b571-ae667035446b}, !- Handle
  Core_top_ZN_5_Wall_West,                !- Name
  Wall,                                   !- Surface Type
  {fc820f51-784f-49b3-bcaa-46bc2575d9a2}, !- Construction Name
  {c3f88abe-664f-4e98-a6d3-2e060f68f40d}, !- Space Name
  Surface,                                !- Outside Boundary Condition
  {db2bcc13-2fee-430b-aa9b-b09242a54ef9}, !- Outside Boundary Condition Object
  NoSun,                                  !- Sun Exposure
  NoWind,                                 !- Wind Exposure
  ,                                       !- View Factor to Ground
  ,                                       !- Number of Vertices
  4.5732, 28.7006, 10.668,                !- X,Y,Z Vertex 1 {m}
  4.5732, 28.7006, 7.9248,                !- X,Y,Z Vertex 2 {m}
  4.5732, 4.5732, 7.9248,                 !- X,Y,Z Vertex 3 {m}
  4.5732, 4.5732, 10.668;                 !- X,Y,Z Vertex 4 {m}

OS:Construction,
  {fc820f51-784f-49b3-bcaa-46bc2575d9a2}, !- Handle
  int-walls,                              !- Name
  ,                                       !- Surface Rendering Name
  {21e4929f-14c8-45d0-87fc-41949d80ca7d}, !- Layer 1
  {21e4929f-14c8-45d0-87fc-41949d80ca7d}; !- Layer 2

OS:Material,
  {21e4929f-14c8-45d0-87fc-41949d80ca7d}, !- Handle
  1/2IN Gypsum,                           !- Name
  Smooth,                                 !- Roughness
  0.0127,                                 !- Thickness {m}
  0.16,                                   !- Conductivity {W/m-K}
  784.9,                                  !- Density {kg/m3}
  830,                                    !- Specific Heat {J/kg-K}
  0.9,                                    !- Thermal Absorptance
  0.92,                                   !- Solar Absorptance
  0.92;                                   !- Visible Absorptance

OS:InternalMass:Definition,
  {5c86aa4b-aa43-4b28-aea2-d254e5fa5b51}, !- Handle
  Perimeter_mid_ZN_4 Internal Mass Definition, !- Name
  {e9842f6d-f73b-4fda-891c-5105ffac59bf}, !- Construction Name
  SurfaceArea,                            !- Design Level Calculation Method
  262.5072,                               !- Surface Area {m2}
  ,                                       !- Surface Area per Space Floor Area {dimensionless}
  ;                                       !- Surface Area per Person {m2/person}

OS:Construction,
  {e9842f6d-f73b-4fda-891c-5105ffac59bf}, !- Handle
  InteriorFurnishings,                    !- Name
  ,                                       !- Surface Rendering Name
  {b9ebab54-81bf-4f84-abb5-975fa20313fe}; !- Layer 1

OS:Material,
  {b9ebab54-81bf-4f84-abb5-975fa20313fe}, !- Handle
  Std Wood 6inch,                         !- Name
  MediumSmooth,                           !- Roughness
  0.15,                                   !- Thickness {m}
  0.12,                                   !- Conductivity {W/m-K}
  540,                                    !- Density {kg/m3}
  1210,                                   !- Specific Heat {J/kg-K}
  0.9,                                    !- Thermal Absorptance
  0.7,                                    !- Solar Absorptance
  0.7;                                    !- Visible Absorptance

OS:InternalMass,
  {ca1dff9f-c8d4-4797-a2d6-2644ec0ce5c2}, !- Handle
  Perimeter_mid_ZN_4 Internal Mass,       !- Name
  {5c86aa4b-aa43-4b28-aea2-d254e5fa5b51}, !- Internal Mass Definition Name
  {9215f3af-3ec4-4736-a206-c8d9a9a89a5f}; !- Space or SpaceType Name

OS:Space,
  {9215f3af-3ec4-4736-a206-c8d9a9a89a5f}, !- Handle
  Perimeter_mid_ZN_4,                     !- Name
  {53bde7dd-8796-4020-834c-2f015f284434}, !- Space Type Name
  ,                                       !- Default Construction Set Name
  ,                                       !- Default Schedule Set Name
  0,                                      !- Direction of Relative North {deg}
  0,                                      !- X Origin {m}
  0,                                      !- Y Origin {m}
  0,                                      !- Z Origin {m}
  {d8310039-fa2b-44bb-a846-911e58a99501}, !- Building Story Name
  {93733ce0-e6d0-42f0-af10-da2bd0aa843b}, !- Thermal Zone Name
  Yes,                                    !- Part of Total Floor Area
  {66aa5f86-14cd-49fa-909f-10b4bd67a608}; !- Design Specification Outdoor Air Object Name

OS:ThermostatSetpoint:DualSetpoint,
  {f4b1fa16-6886-4d31-bd5a-9651d5a148a7}, !- Handle
  {9ea67ca3-faa7-456c-96b8-9f7decf96542}, !- Name
  {29e21bdb-1b4d-416b-bcf2-24f80e35082d}, !- Heating Setpoint Temperature Schedule Name
  {46f9bcaa-075b-41b4-bc01-b34df9042595}; !- Cooling Setpoint Temperature Schedule Name

OS:Schedule:Compact,
  {c2aa3ab7-8e93-4f85-8157-178559031349}, !- Handle
  ALWAYS_ON,                              !- Name
  {229cf173-ad38-4f9f-8799-9645321274a6}, !- Schedule Type Limits Name
  Through: 12/31,                         !- Field 1
  For: AllDays,                           !- Field 2
  Until: 24:00,                           !- Field 3
  1;                                      !- Field 4

OS:ScheduleTypeLimits,
  {229cf173-ad38-4f9f-8799-9645321274a6}, !- Handle
  On/Off,                                 !- Name
  0,                                      !- Lower Limit Value {BasedOnField A4}
  1,                                      !- Upper Limit Value {BasedOnField A4}
  DISCRETE,                               !- Numeric Type
  Availability;                           !- Unit Type

OS:Lights:Definition,
  {a4335f3c-6a47-4483-aec8-b252b8aa368e}, !- Handle
  Perimeter_mid_ZN_3_Lights Definition,   !- Name
  Watts/Area,                             !- Design Level Calculation Method
  ,                                       !- Lighting Level {W}
  10.76,                                  !- Watts per Space Floor Area {W/m2}
  ,                                       !- Watts per Person {W/person}
  0.4,                                    !- Fraction Radiant
  0.2,                                    !- Fraction Visible
  0.4,                                    !- Return Air Fraction
  No;                                     !- Return Air Fraction Calculated from Plenum Temperature

OS:Lights,
  {b18c51c8-611f-4b02-89a2-73a5b01e9429}, !- Handle
  Perimeter_mid_ZN_3_Lights,              !- Name
  {a4335f3c-6a47-4483-aec8-b252b8aa368e}, !- Lights Definition Name
  {e59e7cd4-08ce-4649-9361-5544e5864da3}, !- Space or SpaceType Name
  {d1ae1fc7-df98-4c1f-b8c0-7057c35655f4}, !- Schedule Name
  1,                                      !- Fraction Replaceable
  ,                                       !- Multiplier
  General;                                !- End-Use Subcategory

OS:Space,
  {e59e7cd4-08ce-4649-9361-5544e5864da3}, !- Handle
  Perimeter_mid_ZN_3,                     !- Name
  {53bde7dd-8796-4020-834c-2f015f284434}, !- Space Type Name
  ,                                       !- Default Construction Set Name
  ,                                       !- Default Schedule Set Name
  0,                                      !- Direction of Relative North {deg}
  0,                                      !- X Origin {m}
  0,                                      !- Y Origin {m}
  0,                                      !- Z Origin {m}
  {d8310039-fa2b-44bb-a846-911e58a99501}, !- Building Story Name
  {70146cd9-8b56-4cfb-a452-e35370c5e07a}, !- Thermal Zone Name
  Yes,                                    !- Part of Total Floor Area
  {e194b51c-b686-4ac5-a7ee-131167341033}; !- Design Specification Outdoor Air Object Name

OS:ThermostatSetpoint:DualSetpoint,
  {c3f52b8b-3693-45d9-96b5-1c6d19a63f13}, !- Handle
  {0b62602f-b6a2-4557-9c35-998d4817eb8e}, !- Name
  {29e21bdb-1b4d-416b-bcf2-24f80e35082d}, !- Heating Setpoint Temperature Schedule Name
  {46f9bcaa-075b-41b4-bc01-b34df9042595}; !- Cooling Setpoint Temperature Schedule Name

OS:Building,
  {e2a61252-7956-4bf0-be60-8fc09a70b4e1}, !- Handle
  MediumOffice,                           !- Name
  ,                                       !- Building Sector Type
  0,                                      !- North Axis {deg}
  ,                                       !- Nominal Floor to Floor Height {m}
  ,                                       !- Space Type Name
  ,                                       !- Default Construction Set Name
  ;                                       !- Default Schedule Set Name

OS:Schedule:Compact,
  {93f8d36a-9cdf-4ec7-ab04-166be0fbc803}, !- Handle
  HVACOperationSchd,                      !- Name
  {229cf173-ad38-4f9f-8799-9645321274a6}, !- Schedule Type Limits Name
  Through: 12/31,                         !- Field 1