
OS:Version,
  {c9cb95e8-a1d2-4a3a-8cb4-bb47c91d9ce8}, !- Handle
  1.8.5;                                  !- Version Identifier

OS:Site,
  {64b7065b-fcf6-4322-a1e4-932e3b31dbc5}, !- Handle
  USA IL-CHICAGO-OHARE,                   !- Name
  41.77,                                  !- Latitude {deg}
  -87.75,                                 !- Longitude {deg}
  -6,                                     !- Time Zone {hr}
  190,                                    !- Elevation {m}
  City;                                   !- Terrain

OS:SimulationControl,
  {1bddba4b-675b-4da1-8186-22f23ddae0f0}, !- Handle
  Yes,                                    !- Do Zone Sizing Calculation
  Yes,                                    !- Do System Sizing Calculation
  Yes,                                    !- Do Plant Sizing Calculation
  No,                                     !- Run Simulation for Sizing Periods
  Yes,                                    !- Run Simulation for Weather File Run Periods
  0.04,                                   !- Loads Convergence Tolerance Value
  0.2,                                    !- Temperature Convergence Tolerance Value {deltaC}
  FullInteriorAndExterior,                !- Solar Distribution
  25,                                     !- Maximum Number of Warmup Days
  6;                                      !- Minimum Number of Warmup Days

OS:Material:NoMass,
  {992e4e69-f128-41bd-a641-e793883ef6f8}, !- Handle
  MAT-AIR-WALL,                           !- Name
  Rough,                                  !- Roughness
  0.2079491,                              !- Thermal Resistance {m2-K/W}
  0.9,                                    !- Thermal Absorptance
  0.7;                                    !- Solar Absorptance

OS:Meter,
  {c6524c38-889e-443a-94c9-65037bebc377}, !- Handle
  ExteriorEquipment:Electricity,          !- Name
  hourly,                                 !- Reporting Frequency
  False,                                  !- Meter File Only
  False;                                  !- Cumulative

OS:Surface,
  {4407afbd-6a67-4d7f-b2b1-41c62accdc11}, !- Handle
  TopFloor_Plenum_Floor_2,                !- Name
  Floor,                                  !- Surface Type
  {3a9edfae-79eb-43f7-a59d-25b57ffd1da8}, !- Construction Name
  {fc8c6c5b-b97c-45ac-8638-d42961158c22}, !- Space Name
  Surface,                                !- Outside Boundary Condition
  {1b386034-1ba5-4879-9fd7-90979d375927}, !- Outside Boundary Condition Object
  NoSun,                                  !- Sun Exposure
  NoWind,                                 !- Wind Exposure
  ,                                       !- View Factor to Ground
  ,                                       !- Number of Vertices
  49.911, 33.2738, 10.668,                !- X,Y,Z Vertex 1 {m}
  49.911, 0, 10.668,                      !- X,Y,Z Vertex 2 {m}
  45.3375, 4.5732, 10.668,                !- X,Y,Z Vertex 3 {m}
  45.3375, 28.7006, 10.668;               !- X,Y,Z Vertex 4 {m}

OS:Construction,
  {3a9edfae-79eb-43f7-a59d-25b57ffd1da8}, !- Handle
  DropCeiling,                            !- Name
  ,                                       !- Surface Rendering Name
  {f3392b30-42d0-492c-953c-bfbffc5857fa}; !- Layer 1

OS:Material,
  {f3392b30-42d0-492c-953c-bfbffc5857fa}, !- Handle
  Std AC02,                               !- Name
  MediumSmooth,                           !- Roughness
  0.0127,                                 !- Thickness {m}
  0.057,                                  !- Conductivity {W/m-K}
  288,                                    !- Density {kg/m3}
  1339,                                   !- Specific Heat {J/kg-K}
  0.9,                                    !- Thermal Absorptance
  0.7,                                    !- Solar Absorptance
  0.2;                                    !- Visible Absorptance

OS:Space,
  {fc8c6c5b-b97c-45ac-8638-d42961158c22}, !- Handle
  TopFloor_Plenum,                        !- Name
  {ba4c8433-057e-46b2-9b0c-f1c64be3b376}, !- Space Type Name
  ,                                       !- Default Construction Set Name
  ,                                       !- Default Schedule Set Name
  0,                                      !- Direction of Relative North {deg}
  0,                                      !- X Origin {m}
  0,                                      !- Y Origin {m}
  0,                                      !- Z Origin {m}
  {9bdba4b5-5145-414c-8ec8-0345e8801eac}, !- Building Story Name
  ,                                       !- Thermal Zone Name
  No;                                     !- Part of Total Floor Area

OS:Curve:Biquadratic,
  {1c2a5da4-0c96-44b5-8123-bf9403e14f3b}, !- Handle
  Measured_CoolCStandard10Ton_EIRFT,      !- Name
  0.9847,                                 !- Coefficient1 Constant
  -0.04285,                               !- Coefficient2 x
  0.0013562,                              !- Coefficient3 x**2
  0.009934,                               !- Coefficient4 y
  0.0006398,                              !- Coefficient5 y**2
  -0.001169,                              !- Coefficient6 x*y
  11.1,                                   !- Minimum Value of x {BasedOnField A2}
  29.4,                                   !- Maximum Value of x {BasedOnField A2}
  10,                                     !- Minimum Value of y {BasedOnField A3}
  50.3;                                   !- Maximum Value of y {BasedOnField A3}

OS:Surface,
  {7cc93ed7-c863-4b5d-8513-553ab596d54e}, !- Handle
  Perimeter_top_Plenum_Wall_East,         !- Name
  Wall,                                   !- Surface Type
  {75de3d9e-9606-4fa0-95da-42b4bdf4d2c9}, !- Construction Name
  {fc8c6c5b-b97c-45ac-8638-d42961158c22}, !- Space Name
  Outdoors,                               !- Outside Boundary Condition
  ,                                       !- Outside Boundary Condition Object
  SunExposed,                             !- Sun Exposure
  WindExposed,                            !- Wind Exposure
  ,                                       !- View Factor to Ground
  ,                                       !- Number of Vertices
  49.911, 0, 11.8872,                     !- X,Y,Z Vertex 1 {m}
  49.911, 0, 10.668,                      !- X,Y,Z Vertex 2 {m}
  49.911, 33.2738, 10.668,                !- X,Y,Z Vertex 3 {m}
  49.911, 33.2738, 11.8872;               !- X,Y,Z Vertex 4 {m}

OS:Construction,
  {75de3d9e-9606-4fa0-95da-42b4bdf4d2c9}, !- Handle
  Steel Frame Non-res Ext Wall,           !- Name
  ,                                       !- Surface Rendering Name
  {6d35eec8-ce5b-4e2b-88cd-6c29d6ff644b}, !- Layer 1
  {d949d5b1-a4f9-471f-8a37-6d60310fdc1c}, !- Layer 2
  {20e42c22-3111-4754-a927-4cea913adea6}; !- Layer 3

OS:Material,
  {6d35eec8-ce5b-4e2b-88cd-6c29d6ff644b}, !- Handle
  Wood Siding,                            !- Name
  MediumSmooth,                           !- Roughness
  0.01,                                   !- Thickness {m}
  0.11,                                   !- Conductivity {W/m-K}
  544.62,                                 !- Density {kg/m3}
  1210,                                   !- Specific Heat {J/kg-K}
  0.9,                                    !- Thermal Absorptance
  0.78,                                   !- Solar Absorptance
  0.78;                                   !- Visible Absorptance

OS:Material,
  {d949d5b1-a4f9-471f-8a37-6d60310fdc1c}, !- Handle
  Steel Frame NonRes Wall Insulation,     !- Name
  MediumRough,                            !- Roughness
  0.0870564552646045,                     !- Thickness {m}
  0.049,                                  !- Conductivity {W/m-K}
  265,                                    !- Density {kg/m3}
  836.8,                                  !- Specific Heat {J/kg-K}
  0.9,                                    !- Thermal Absorptance
  0.7,                                    !- Solar Absorptance
  0.7;                                    !- Visible Absorptance

OS:Material,
  {20e42c22-3111-4754-a927-4cea913adea6}, !- Handle
  1/2IN Gypsum,                           !- Name
  Smooth,                                 !- Roughness
  0.0127,                                 !- Thickness {m}
  0.16,                                   !- Conductivity {W/m-K}
  784.9,                                  !- Density {kg/m3}
  830,                                    !- Specific Heat {J/kg-K}
  0.9,                                    !- Thermal Absorptance
  0.92,                                   !- Solar Absorptance
  0.92;                                   !- Visible Absorptance

OS:Schedule:Compact,
  {bff81ab8-7543-4dfa-b72e-af2d1b7532ae}, !- Handle
  INFIL_QUARTER_ON_SCH,                   !- Name
  {add4ed38-1d42-414e-bec6-92db427b177e}, !- Schedule Type Limits Name
  Through: 12/31,                         !- Field 1
  For: Weekdays SummerDesignDay,          !- Field 2
  Until: 06:00,                           !- Field 3
  1.0,                                    !- Field 4
  Until: 22:00,                           !- Field 5
  0.25,                                   !- Field 6
  Until: 24:00,                           !- Field 7
  1.0,                                    !- Field 8
  For: Saturday WinterDesignDay,          !- Field 9
  Until: 06:00,                           !- Field 10
  1.0,                                    !- Field 11
  Until: 18:00,                           !- Field 12
  0.25,                                   !- Field 13
  Until: 24:00,                           !- Field 14
  1.0,                                    !- Field 15
  For: Sunday Holidays AllOtherDays,      !- Field 16
  Until: 24:00,                           !- Field 17
  1.0;                                    !- Field 18

OS:ScheduleTypeLimits,
  {add4ed38-1d42-414e-bec6-92db427b177e}, !- Handle
  Fraction,                               !- Name
  0,                                      !- Lower Limit Value {BasedOnField A4}
  1,                                      !- Upper Limit Value {BasedOnField A4}
  CONTINUOUS;                             !- Numeric Type

OS:Surface,
  {fe2def81-347a-41dd-865a-f6c7ba80487b}, !- Handle
  Perimeter_mid_ZN_2_Floor,               !- Name
  Floor,                                  !- Surface Type
  {ca6792b7-b4df-410b-a007-ad8c70599516}, !- Construction Name
  {7bf92a7f-e210-4804-8b4c-e2e9932f241b}, !- Space Name
  Surface,                                !- Outside Boundary Condition
  {eed497a2-1028-4dde-bb17-5957afdd8948}, !- Outside Boundary Condition Object
  NoSun,                                  !- Sun Exposure
  NoWind,                                 !- Wind Exposure
  ,                                       !- View Factor to Ground
  ,                                       !- Number of Vertices
  49.911, 33.2738, 3.9624,                !- X,Y,Z Vertex 1 {m}
  49.911, 0, 3.9624,                      !- X,Y,Z Vertex 2 {m}
  45.3375, 4.5732, 3.9624,                !- X,Y,Z Vertex 3 {m}
  45.3375, 28.7006, 3.9624;               !- X,Y,Z Vertex 4 {m}

OS:Construction,
  {ca6792b7-b4df-410b-a007-ad8c70599516}, !- Handle
  INT-FLOOR-TOPSIDE,                      !- Name
  ,                                       !- Surface Rendering Name
  {fca6e702-9e95-43b3-ae6a-8b49916bcf0f}, !- Layer 1
  {3825cad0-54a7-4e85-b2ed-b7a74115af31}; !- Layer 2

OS:Material,
  {fca6e702-9e95-43b3-ae6a-8b49916bcf0f}, !- Handle
  MAT-CC05 4 HW CONCRETE,                 !- Name
  Rough,                                  !- Roughness
  0.1016,                                 !- Thickness {m}
  1.311,                                  !- Conductivity {W/m-K}
  2240,                                   !- Density {kg/m3}
  836.8,                                  !- Specific Heat {J/kg-K}
  0.9,                                    !- Thermal Absorptance
  0.7,                                    !- Solar Absorptance
  0.7;                                    !- Visible Absorptance

OS:Material:NoMass,
  {3825cad0-54a7-4e85-b2ed-b7a74115af31}, !- Handle
  CP02 CARPET PAD,                        !- Name
  VeryRough,                              !- Roughness
  0.2165,                                 !- Thermal Resistance {m2-K/W}
  0.9,                                    !- Thermal Absorptance
  0.7,                                    !- Solar Absorptance
  0.8;                                    !- Visible Absorptance

OS:Space,
  {7bf92a7f-e210-4804-8b4c-e2e9932f241b}, !- Handle
  Perimeter_mid_ZN_2,                     !- Name
  {6c86d11c-6494-431e-8c49-2045ebe9adb1}, !- Space Type Name
  ,                                       !- Default Construction Set Name
  ,                                       !- Default Schedule Set Name
  0,                                      !- Direction of Relative North {deg}
  0,                                      !- X Origin {m}
  0,                                      !- Y Origin {m}
  0,                                      !- Z Origin {m}
  {9bdba4b5-5145-414c-8ec8-0345e8801eac}, !- Building Story Name
  {1e12457f-cc95-4b7b-a72b-5a08bf0393e5}, !- Thermal Zone Name
  Yes,                                    !- Part of Total Floor Area
  {3928d1c7-6bf8-4e6d-9967-707f9b0c1126}; !- Design Specification Outdoor Air Object Name

OS:ThermostatSetpoint:DualSetpoint,
  {f60f6c33-0a0c-4c07-98e1-14ae2e9646ad}, !- Handle
  {c9a42970-6e33-41ab-bd3e-f99fad279f71}, !- Name
  {3a171c31-23cb-40fb-9abf-037d8a66d73b}, !- Heating Setpoint Temperature Schedule Name
  {7d39c99b-0740-4dca-949c-3d5beecbddb7}; !- Cooling Setpoint Temperature Schedule Name

OS:Schedule:Compact,
  {3a171c31-23cb-40fb-9abf-037d8a66d73b}, !- Handle
  HTGSETP_SCH,                            !- Name
  {2c2e55e2-3473-44b4-bfdb-0fe85e4cdb9e}, !- Schedule Type Limits Name
  Through: 12/31,                         !- Field 1
  For: Weekdays,                          !- Field 2
  Until: 06:00,                           !- Field 3
  15.6,                                   !- Field 4
  Until: 22:00,                           !- Field 5
  21.0,                                   !- Field 6
  Until: 24:00,                           !- Field 7
  15.6,                                   !- Field 8
  For SummerDesignDay,                    !- Field 9
  Until: 24:00,                           !- Field 10
  15.6,                                   !- Field 11
  For: Saturday,                          !- Field 12
  Until: 06:00,                           !- Field 13
  15.6,                                   !- Field 14
  Until: 18:00,                           !- Field 15
  21.0,                                   !- Field 16
  Until: 24:00,                           !- Field 17
  15.6,                                   !- Field 18
  For: WinterDesignDay,                   !- Field 19
  Until: 24:00,                           !- Field 20
  21.0,                                   !- Field 21
  For: AllOtherDays,                      !- Field 22
  Until: 24:00,                           !- Field 23
  15.6;                                   !- Field 24

OS:ScheduleTypeLimits,
  {2c2e55e2-3473-44b4-bfdb-0fe85e4cdb9e}, !- Handle
  Temperature,                            !- Name
  -60,                                    !- Lower Limit Value {BasedOnField A4}
  200,                                    !- Upper Limit Value {BasedOnField A4}
  CONTINUOUS,                             !- Numeric Type
  Temperature;                            !- Unit Type

OS:Schedule:Compact,
  {7d39c99b-0740-4dca-949c-3d5beecbddb7}, !- Handle
  CLGSETP_SCH,                            !- Name
  {2c2e55e2-3473-44b4-bfdb-0fe85e4cdb9e}, !- Schedule Type Limits Name
  Through: 12/31,                         !- Field 1
  For: Weekdays SummerDesignDay,          !- Field 2
  Until: 06:00,                           !- Field 3
  26.7,                                   !- Field 4
  Until: 22:00,                           !- Field 5
  24.0,                                   !- Field 6
  Until: 24:00,                           !- Field 7
  26.7,                                   !- Field 8
  For: Saturday,                          !- Field 9
  Until: 06:00,                           !- Field 10
  26.7,                                   !- Field 11
  Until: 18:00,                           !- Field 12
  24.0,                                   !- Field 13
  Until: 24:00,                           !- Field 14
  26.7,                                   !- Field 15
  For WinterDesignDay,                    !- Field 16
  Until: 24:00,                           !- Field 17
  26.7,                                   !- Field 18
  For: AllOtherDays,                      !- Field 19
  Until: 24:00,                           !- Field 20
  26.7;                                   !- Field 21

OS:Space,
  {73e92222-6959-4bdb-b682-1331631f2087}, !- Handle
  Perimeter_bot_ZN_2,                     !- Name
  {6c86d11c-6494-431e-8c49-2045ebe9adb1}, !- Space Type Name
  ,                                       !- Default Construction Set Name
  ,                                       !- Default Schedule Set Name
  0,                                      !- Direction of Relative North {deg}
  0,                                      !- X Origin {m}
  0,                                      !- Y Origin {m}
  0,                                      !- Z Origin {m}
  {9bdba4b5-5145-414c-8ec8-0345e8801eac}, !- Building Story Name
  {1e12457f-cc95-4b7b-a72b-5a08bf0393e5}, !- Thermal Zone Name
  Yes,                                    !- Part of Total Floor Area
  {69e327ba-8f34-4203-8750-b57f1eb18288}; !- Design Specification Outdoor Air Object Name

OS:ThermostatSetpoint:DualSetpoint,
  {e8f9d82a-b70d-4c5a-8df2-b04443a94f48}, !- Handle
  {5bcdfc36-6b4e-4a22-9091-ce0ac792ab80}, !- Name
  {3a171c31-23cb-40fb-9abf-037d8a66d73b}, !- Heating Setpoint Temperature Schedule Name
  {7d39c99b-0740-4dca-949c-3d5beecbddb7}; !- Cooling Setpoint Temperature Schedule Name

OS:DesignSpecification:OutdoorAir,
  {69e327ba-8f34-4203-8750-b57f1eb18288}, !- Handle
  SZ DSOA Perimeter_bot_ZN_2,             !- Name
  ,                                       !- Outdoor Air Method
  0.0125,                                 !- Outdoor Air Flow per Person {m3/s-person}
  ,                                       !- Outdoor Air Flow per Floor Area {m3/s-m2}
  ,                                       !- Outdoor Air Flow Rate {m3/s}
  ,                                       !- Outdoor Air Flow Air Changes per Hour {1/hr}
  ;                                       !- Outdoor Air Flow Rate Fraction Schedule Name

OS:People:Definition,
  {182357c9-cc03-41d2-987e-f105d26efebf}, !- Handle
  Perimeter_top_ZN_1 People Definition,   !- Name
  Area/Person,                            !- Number of People Calculation Method
  ,                                       !- Number of People {people}
  ,                                       !- People per Space Floor Area {person/m2}
  18.58,                                  !- Space Floor Area per Person {m2/person}
  0.3,                                    !- Fraction Radiant
  ,                                       !- Sensible Heat Fraction
  ,                                       !- Carbon Dioxide Generation Rate {m3/s-W}
  No,                                     !- Enable ASHRAE 55 Comfort Warnings
  ZoneAveraged;                           !- Mean Radiant Temperature Calculation Type

OS:People,
  {6f7d7ff3-4f21-485c-9157-11dd7581ae02}, !- Handle
  Perimeter_top_ZN_1 People,              !- Name
  {182357c9-cc03-41d2-987e-f105d26efebf}, !- People Definition Name
  {f6b7fd63-eb19-4788-969e-e8252393da9a}, !- Space or SpaceType Name
  {0bf2bec4-4bbe-4421-97d1-8f4098b49f0f}, !- Number of People Schedule Name
  {d3be8649-9b21-4da3-9651-f661aca41f2f}, !- Activity Level Schedule Name
  ,                                       !- Surface Name/Angle Factor List Name
  {32f3f62b-6560-464f-8590-558abb8d7635}; !- Work Efficiency Schedule Name

OS:Space,
  {f6b7fd63-eb19-4788-969e-e8252393da9a}, !- Handle
  Perimeter_top_ZN_1,                     !- Name
  {6c86d11c-6494-431e-8c49-2045ebe9adb1}, !- Space Type Name
  ,                                       !- Default Construction Set Name
  ,                                       !- Default Schedule Set Name
  0,                                      !- Direction of Relative North {deg}
  0,                                      !- X Origin {m}
  0,                                      !- Y Origin {m}
  0,                                      !- Z Origin {m}
  {9bdba4b5-5145-414c-8ec8-0345e8801eac}, !- Building Story Name
  {527c5ffe-fce1-4d8e-b401-dec55ac07eeb}, !- Thermal Zone Name
  Yes,                                    !- Part of Total Floor Area
  {7a7b9382-78b5-4360-8fbf-473f7bc8d4f4}; !- Design Specification Outdoor Air Object Name

OS:ThermostatSetpoint:DualSetpoint,
  {f122fa3e-3851-4a0a-9792-38764b1cdf9f}, !- Handle
  {1210d70b-640d-4612-bda3-94e68f04a45c}, !- Name
  {3a171c31-23cb-40fb-9abf-037d8a66d73b}, !- Heating Setpoint Temperature Schedule Name
  {7d39c99b-0740-4dca-949c-3d5beecbddb7}; !- Cooling Setpoint Temperature Schedule Name

OS:Schedule:Compact,
  {0bf2bec4-4bbe-4421-97d1-8f4098b49f0f}, !- Handle
  BLDG_OCC_SCH,                           !- Name
  {add4ed38-1d42-414e-bec6-92db427b177e}, !- Schedule Type Limits Name
  Through: 12/31,                         !- Field 1
  For: SummerDesignDay,                   !- Field 2
  Until: 06:00,                           !- Field 3
  0.0,                                    !- Field 4
  Until: 22:00,                           !- Field 5
  1.0,                                    !- Field 6
  Until: 24:00,                           !- Field 7
  0.05,                                   !- Field 8
  For: Weekdays,                          !- Field 9
  Until: 06:00,                           !- Field 10
  0.0,                                    !- Field 11
  Until: 07:00,                           !- Field 12
  0.1,                                    !- Field 13
  Until: 08:00,                           !- Field 14
  0.2,                                    !- Field 15
  Until: 12:00,                           !- Field 16
  0.95,                                   !- Field 17
  Until: 13:00,                           !- Field 18
  0.5,                                    !- Field 19
  Until: 17:00,                           !- Field 20
  0.95,                                   !- Field 21
  Until: 18:00,                           !- Field 22
  0.7,                                    !- Field 23
  Until: 20:00,                           !- Field 24
  0.4,                                    !- Field 25
  Until: 22:00,                           !- Field 26
  0.1,                                    !- Field 27
  Until: 24:00,                           !- Field 28
  0.05,                                   !- Field 29
  For: Saturday,                          !- Field 30
  Until: 06:00,                           !- Field 31
  0.0,                                    !- Field 32
  Until: 08:00,                           !- Field 33
  0.1,                                    !- Field 34
  Until: 14:00,                           !- Field 35
  0.5,                                    !- Field 36
  Until: 17:00,                           !- Field 37
  0.1,                                    !- Field 38
  Until: 24:00,                           !- Field 39
  0.0,                                    !- Field 40
  For: AllOtherDays,                      !- Field 41
  Until: 24:00,                           !- Field 42
  0.0;                                    !- Field 43

OS:Schedule:Compact,
  {d3be8649-9b21-4da3-9651-f661aca41f2f}, !- Handle
  ACTIVITY_SCH,                           !- Name
  {242688a6-10f9-4dad-86e4-da9b214d03a7}, !- Schedule Type Limits Name
  Through: 12/31,                         !- Field 1
  For: AllDays,                           !- Field 2
  Until: 24:00,                           !- Field 3
  120.;                                   !- Field 4

OS:ScheduleTypeLimits,
  {b7aa8758-4533-4dec-b716-19e0c1570b4f}, !- Handle
  {14b83679-5f85-4cc2-bf50-f3c34bf2d008}; !- Name

OS:ScheduleTypeLimits,
  {242688a6-10f9-4dad-86e4-da9b214d03a7}, !- Handle
  ActivityLevel,                          !- Name
  0,                                      !- Lower Limit Value {BasedOnField A4}
  ,                                       !- Upper Limit Value {BasedOnField A4}
  Continuous,                             !- Numeric Type
  ActivityLevel;                          !- Unit Type

OS:Schedule:Compact,
  {32f3f62b-6560-464f-8590-558abb8d7635}, !- Handle
  WORK_EFF_SCH,                           !- Name
  {add4ed38-1d42-414e-bec6-92db427b177e}, !- Schedule Type Limits Name
  Through: 12/31,                         !- Field 1
  For: AllDays,                           !- Field 2
  Until: 24:00,                           !- Field 3
  0.0;                                    !- Field 4

OS:Surface,
  {5b7a8218-1bb0-4edb-bb54-4f3c7b706308}, !- Handle
  Core_bot_ZN_5_Wall_North,               !- Name
  Wall,                                   !- Surface Type
  {5da9d721-8bbd-41ae-a07e-281d6959ef0a}, !- Construction Name
  {2a781626-2a66-45f8-b5c8-b78cd97bb3fb}, !- Space Name
  Surface,                                !- Outside Boundary Condition
  {3f148bc4-de03-4e36-a54e-90f3486ba738}, !- Outside Boundary Condition Object
  NoSun,                                  !- Sun Exposure
  NoWind,                                 !- Wind Exposure
  ,                                       !- View Factor to Ground
  ,                                       !- Number of Vertices
  45.3375, 28.7006, 2.7432,               !- X,Y,Z Vertex 1 {m}
  45.3375, 28.7006, 0,                    !- X,Y,Z Vertex 2 {m}
  4.5732, 28.7006, 0,                     !- X,Y,Z Vertex 3 {m}
  4.5732, 28.7006, 2.7432;                !- X,Y,Z Vertex 4 {m}

OS:Construction,
  {5da9d721-8bbd-41ae-a07e-281d6959ef0a}, !- Handle
  int-walls,                              !- Name
  ,                                       !- Surface Rendering Name
  {20e42c22-3111-4754-a927-4cea913adea6}, !- Layer 1
  {20e42c22-3111-4754-a927-4cea913adea6}; !- Layer 2

OS:Space,
  {2a781626-2a66-45f8-b5c8-b78cd97bb3fb}, !- Handle
  Core_bottom,                            !- Name
  {6c86d11c-6494-431e-8c49-2045ebe9adb1}, !- Space Type Name
  ,                                       !- Default Construction Set Name
  ,                                       !- Default Schedule Set Name
  0,                                      !- Direction of Relative North {deg}
  0,                                      !- X Origin {m}
  0,                                      !- Y Origin {m}
  0,                                      !- Z Origin {m}
  {9bdba4b5-5145-414c-8ec8-0345e8801eac}, !- Building Story Name
  {d0b0655d-c5e5-4f09-8d3e-dbd9840971a8}, !- Thermal Zone Name
  Yes,                                    !- Part of Total Floor Area
  {628446ea-e628-4e32-bb4d-27916cfb1940}; !- Design Specification Outdoor Air Object Name

OS:ThermostatSetpoint:DualSetpoint,
  {eca6fde0-409d-463b-9c17-92a97c1132fb}, !- Handle
  {9c2f243f-8690-419e-ba8b-3e1ed43c7a9f}, !- Name
  {3a171c31-23cb-40fb-9abf-037d8a66d73b}, !- Heating Setpoint Temperature Schedule Name
  {7d39c99b-0740-4dca-949c-3d5beecbddb7}; !- Cooling Setpoint Temperature Schedule Name

OS:Lights:Definition,
  {534338a5-4644-4caa-a5e8-2249fc06c2be}, !- Handle
  Perimeter_top_ZN_1_Lights Definition,   !- Name
  Watts/Area,                             !- Design Level Calculation Method
  ,                                       !- Lighting Level {W}
  10.76,                                  !- Watts per Space Floor Area {W/m2}
  ,                                       !- Watts per Person {W/person}
  0.4,                                    !- Fraction Radiant
  0.2,                                    !- Fraction Visible
  0.4,                                    !- Return Air Fraction
  No;                                     !- Return Air Fraction Calculated from Plenum Temperature

OS:Lights,
  {936f6574-b3b0-4fc9-bab0-7593b28360a2}, !- Handle
  Perimeter_top_ZN_1_Lights,              !- Name
  {534338a5-4644-4caa-a5e8-2249fc06c2be}, !- Lights Definition Name
  {f6b7fd63-eb19-4788-969e-e8252393da9a}, !- Space or SpaceType Name
  {2fb7a5dc-0e02-4e13-b468-a12731a9cd47}, !- Schedule Name
  1,                                      !- Fraction Replaceable
  ,                                       !- Multiplier
  General;                                !- End-Use Subcategory

OS:Schedule:Compact,
  {2fb7a5dc-0e02-4e13-b468-a12731a9cd47}, !- Handle
  BLDG_LIGHT_SCH,                         !- Name
  {add4ed38-1d42-414e-bec6-92db427b177e}, !- Schedule Type Limits Name
  Through: 12/31,                         !- Field 1
  For: Weekdays,                          !- Field 2
  Until: 05:00,                           !- Field 3
  0.05,                                   !- Field 4
  Until: 07:00,                           !- Field 5
  0.1,                                    !- Field 6
  Until: 08:00,                           !- Field 7
  0.3,                                    !- Field 8
  Until: 17:00,                           !- Field 9
  0.9,                                    !- Field 10
  Until: 18:00,                           !- Field 11
  0.7,                                    !- Field 12
  Until: 20:00,                           !- Field 13
  0.5,                                    !- Field 14
  Until: 22:00,                           !- Field 15
  0.3,                                    !- Field 16
  Until: 23:00,                           !- Field 17
  0.1,                                    !- Field 18
  Until: 24:00,                           !- Field 19
  0.05,                                   !- Field 20
  For: Saturday,                          !- Field 21