
OS:Version,
  {08d66885-3d29-43b6-8ae6-083b0d6907c8}, !- Handle
  1.8.5;                                  !- Version Identifier

OS:Site,
  {cbf0c88b-ccd0-45c1-b585-7e2b5e86b24d}, !- Handle
  USA IL-CHICAGO-OHARE,                   !- Name
  41.77,                                  !- Latitude {deg}
  -87.75,                                 !- Longitude {deg}
  -6,                                     !- Time Zone {hr}
  190,                                    !- Elevation {m}
  City;                                   !- Terrain

OS:SimulationControl,
  {bfb28b48-1444-4eb7-84e9-f069a44e7afb}, !- Handle
  Yes,                                    !- Do Zone Sizing Calculation
  Yes,                                    !- Do System Sizing Calculation
  Yes,                                    !- Do Plant Sizing Calculation
  No,                                     !- Run Simulation for Sizing Periods
  Yes,                                    !- Run Simulation for Weather File Run Periods
  0.04,                                   !- Loads Convergence Tolerance Value
  0.2,                                    !- Temperature Convergence Tolerance Value {deltaC}
  FullInteriorAndExterior,                !- Solar Distribution
  25,                                     !- Maximum Number of Warmup Days
  6;                                      !- Minimum Number of Warmup Days

OS:Lights:Definition,
  {fbd83bee-6e5d-4e55-874a-029b1b851c13}, !- Handle
  Perimeter_bot_ZN_3_Lights Definition,   !- Name
  Watts/Area,                             !- Design Level Calculation Method
  ,                                       !- Lighting Level {W}
  10.76,                                  !- Watts per Space Floor Area {W/m2}
  ,                                       !- Watts per Person {W/person}
  0.4,                                    !- Fraction Radiant
  0.2,                                    !- Fraction Visible
  0.4,                                    !- Return Air Fraction
  No;                                     !- Return Air Fraction Calculated from Plenum Temperature

OS:Lights,
  {0f47f35c-e0ef-4857-82f5-ccb000c4e77d}, !- Handle
  Perimeter_bot_ZN_3_Lights,              !- Name
  {fbd83bee-6e5d-4e55-874a-029b1b851c13}, !- Lights Definition Name
  {9cb5be1a-fb24-4fd8-80fe-43351e6f15b4}, !- Space or SpaceType Name
  {43157780-262b-4166-9203-1ee387bdbc5d}, !- Schedule Name
  1,                                      !- Fraction Replaceable
  ,                                       !- Multiplier
  General;                                !- End-Use Subcategory

OS:Space,
  {9cb5be1a-fb24-4fd8-80fe-43351e6f15b4}, !- Handle
  Perimeter_bot_ZN_3,                     !- Name
  {ab3c6af7-cc1f-4395-bdbf-465e600db403}, !- Space Type Name
  ,                                       !- Default Construction Set Name
  ,                                       !- Default Schedule Set Name
  0,                                      !- Direction of Relative North {deg}
  0,                                      !- X Origin {m}
  0,                                      !- Y Origin {m}
  0,                                      !- Z Origin {m}
  {aff79023-ce89-45cf-b82b-78bb3e2c2a72}, !- Building Story Name
  {61417dc9-d434-4b61-96dd-ada628a0ec83}, !- Thermal Zone Name
  Yes,                                    !- Part of Total Floor Area
  {3401a637-6cb8-478f-9ebd-4bb8ff4061b8}; !- Design Specification Outdoor Air Object Name

OS:ThermostatSetpoint:DualSetpoint,
  {414f32c5-7531-4662-a3f1-1465e206497f}, !- Handle
  {92ac19fe-9b0e-4ea9-ac7c-efd316730627}, !- Name
  {60182424-8018-4052-bd92-e31cee8dd8e1}, !- Heating Setpoint Temperature Schedule Name
  {42de8700-d70d-435a-ab70-84207f7f848a}; !- Cooling Setpoint Temperature Schedule Name

OS:Schedule:Compact,
  {60182424-8018-4052-bd92-e31cee8dd8e1}, !- Handle
  HTGSETP_SCH,                            !- Name
  {ac6e66b8-b78c-4935-81f2-5b975a09a9c7}, !- Schedule Type Limits Name
  Through: 12/31,                         !- Field 1
  For: Weekdays,                          !- Field 2
  Until: 06:00,                           !- Field 3
  15.6,                                   !- Field 4
  Until: 22:00,                           !- Field 5
  21.0,                                   !- Field 6
  Until: 24:00,                           !- Field 7
  15.6,                                   !- Field 8
  For SummerDesignDay,                    !- Field 9
  Until: 24:00,                           !- Field 10
  15.6,                                   !- Field 11
  For: Saturday,                          !- Field 12
  Until: 06:00,                           !- Field 13
  15.6,                                   !- Field 14
  Until: 18:00,                           !- Field 15
  21.0,                                   !- Field 16
  Until: 24:00,                           !- Field 17
  15.6,                                   !- Field 18
  For: WinterDesignDay,                   !- Field 19
  Until: 24:00,                           !- Field 20
  21.0,                                   !- Field 21
  For: AllOtherDays,                      !- Field 22
  Until: 24:00,                           !- Field 23
  15.6;                                   !- Field 24

OS:ScheduleTypeLimits,
  {ac6e66b8-b78c-4935-81f2-5b975a09a9c7}, !- Handle
  Temperature,                            !- Name
  -60,                                    !- Lower Limit Value {BasedOnField A4}
  200,                                    !- Upper Limit Value {BasedOnField A4}
  CONTINUOUS,                             !- Numeric Type
  Temperature;                            !- Unit Type

OS:Schedule:Compact,
  {42de8700-d70d-435a-ab70-84207f7f848a}, !- Handle
  CLGSETP_SCH,                            !- Name
  {ac6e66b8-b78c-4935-81f2-5b975a09a9c7}, !- Schedule Type Limits Name
  Through: 12/31,                         !- Field 1
  For: Weekdays SummerDesignDay,          !- Field 2
  Until: 06:00,                           !- Field 3
  26.7,                                   !- Field 4
  Until: 22:00,                           !- Field 5
  24.0,                                   !- Field 6
  Until: 24:00,                           !- Field 7
  26.7,                                   !- Field 8
  For: Saturday,                          !- Field 9
  Until: 06:00,                           !- Field 10
  26.7,                                   !- Field 11
  Until: 18:00,                           !- Field 12
  24.0,                                   !- Field 13
  Until: 24:00,                           !- Field 14
  26.7,                                   !- Field 15
  For WinterDesignDay,                    !- Field 16
  Until: 24:00,                           !- Field 17
  26.7,                                   !- Field 18
  For: AllOtherDays,                      !- Field 19
  Until: 24:00,                           !- Field 20
  26.7;                                   !- Field 21

OS:Schedule:Compact,
  {43157780-262b-4166-9203-1ee387bdbc5d}, !- Handle
  BLDG_LIGHT_SCH,                         !- Name
  {b5df9797-e12e-402b-aa3e-6b9339851987}, !- Schedule Type Limits Name
  Through: 12/31,                         !- Field 1
  For: Weekdays,                          !- Field 2
  Until: 05:00,                           !- Field 3
  0.05,                                   !- Field 4
  Until: 07:00,                           !- Field 5
  0.1,                                    !- Field 6
  Until: 08:00,                           !- Field 7
  0.3,                                    !- Field 8
  Until: 17:00,                           !- Field 9
  0.9,                                    !- Field 10
  Until: 18:00,                           !- Field 11
  0.7,                                    !- Field 12
  Until: 20:00,                           !- Field 13
  0.5,                                    !- Field 14
  Until: 22:00,                           !- Field 15
  0.3,                                    !- Field 16
  Until: 23:00,                           !- Field 17
  0.1,                                    !- Field 18
  Until: 24:00,                           !- Field 19
  0.05,                                   !- Field 20
  For: Saturday,                          !- Field 21
  Until: 06:00,                           !- Field 22
  0.05,                                   !- Field 23
  Until: 08:00,                           !- Field 24
  0.1,                                    !- Field 25
  Until: 14:00,                           !- Field 26
  0.5,                                    !- Field 27
  Until: 17:00,                           !- Field 28
  0.15,                                   !- Field 29
  Until: 24:00,                           !- Field 30
  0.05,                                   !- Field 31
  For: SummerDesignDay,                   !- Field 32
  Until: 24:00,                           !- Field 33
  1.0,                                    !- Field 34
  For: WinterDesignDay,                   !- Field 35
  Until: 24:00,                           !- Field 36
  0.0,                                    !- Field 37
  For: AllOtherDays,                      !- Field 38
  Until: 24:00,                           !- Field 39
  0.05;                                   !- Field 40

OS:ScheduleTypeLimits,
  {b5df9797-e12e-402b-aa3e-6b9339851987}, !- Handle
  Fraction,                               !- Name
  0,                                      !- Lower Limit Value {BasedOnField A4}
  1,                                      !- Upper Limit Value {BasedOnField A4}
  CONTINUOUS;                             !- Numeric Type

OS:Construction,
  {a77f73d8-410d-463a-a408-ebbd05053ab7}, !- Handle
  INT-FLOOR-UNDERSIDE,                    !- Name
  ,                                       !- Surface Rendering Name
  {667f5ac3-5f7e-49c5-a17f-b79be2f4c21c}, !- Layer 1
  {8f2cc403-0a11-4831-b66b-eaee1c1b56db}; !- Layer 2

OS:Material:NoMass,
  {667f5ac3-5f7e-49c5-a17f-b79be2f4c21c}, !- Handle
  CP02 CARPET PAD,                        !- Name
  VeryRough,                              !- Roughness
  0.2165,                                 !- Thermal Resistance {m2-K/W}
  0.9,                                    !- Thermal Absorptance
  0.7,                                    !- Solar Absorptance
  0.8;                                    !- Visible Absorptance

OS:Material,
  {8f2cc403-0a11-4831-b66b-eaee1c1b56db}, !- Handle
  MAT-CC05 4 HW CONCRETE,                 !- Name
  Rough,                                  !- Roughness
  0.1016,                                 !- Thickness {m}
  1.311,                                  !- Conductivity {W/m-K}
  2240,                                   !- Density {kg/m3}
  836.8,                                  !- Specific Heat {J/kg-K}
  0.9,                                    !- Thermal Absorptance
  0.7,                                    !- Solar Absorptance
  0.7;                                    !- Visible Absorptance

OS:Surface,
  {dd30423d-edf1-450f-9e31-38e1b0ec91b0}, !- Handle
  Perimeter_mid_ZN_2_Wall_North,          !- Name
  Wall,                                   !- Surface Type
  {d3b0fa70-492d-49cd-bee5-3990c603f3ca}, !- Construction Name
  {60d48dc7-b36c-4aec-816a-d1e14101679e}, !- Space Name
  Surface,                                !- Outside Boundary Condition
  {95a8bbd2-a073-4655-994b-7e2c005464a3}, !- Outside Boundary Condition Object
  NoSun,                                  !- Sun Exposure
  NoWind,                                 !- Wind Exposure
  ,                                       !- View Factor to Ground
  ,                                       !- Number of Vertices
  49.911, 33.2738, 6.7056,                !- X,Y,Z Vertex 1 {m}
  49.911, 33.2738, 3.9624,                !- X,Y,Z Vertex 2 {m}
  45.3375, 28.7006, 3.9624,               !- X,Y,Z Vertex 3 {m}
  45.3375, 28.7006, 6.7056;               !- X,Y,Z Vertex 4 {m}

OS:Construction,
  {d3b0fa70-492d-49cd-bee5-3990c603f3ca}, !- Handle
  int-walls,                              !- Name
  ,                                       !- Surface Rendering Name
  {707e4ceb-1bc7-49f6-abe3-5fbd75d323b9}, !- Layer 1
  {707e4ceb-1bc7-49f6-abe3-5fbd75d323b9}; !- Layer 2

OS:Material,
  {707e4ceb-1bc7-49f6-abe3-5fbd75d323b9}, !- Handle
  1/2IN Gypsum,                           !- Name
  Smooth,                                 !- Roughness
  0.0127,                                 !- Thickness {m}
  0.16,                                   !- Conductivity {W/m-K}
  784.9,                                  !- Density {kg/m3}
  830,                                    !- Specific Heat {J/kg-K}
  0.9,                                    !- Thermal Absorptance
  0.92,                                   !- Solar Absorptance
  0.92;                                   !- Visible Absorptance

OS:Space,
  {60d48dc7-b36c-4aec-816a-d1e14101679e}, !- Handle
  Perimeter_mid_ZN_2,                     !- Name
  {ab3c6af7-cc1f-4395-bdbf-465e600db403}, !- Space Type Name
  ,                                       !- Default Construction Set Name
  ,                                       !- Default Schedule Set Name
  0,                                      !- Direction of Relative North {deg}
  0,                                      !- X Origin {m}
  0,                                      !- Y Origin {m}
  0,                                      !- Z Origin {m}
  {aff79023-ce89-45cf-b82b-78bb3e2c2a72}, !- Building Story Name
  {06420843-a1ac-4cca-a75c-e9230bde912e}, !- Thermal Zone Name
  Yes,                                    !- Part of Total Floor Area
  {80520b8c-f74d-423a-a01e-8d780a2ad8be}; !- Design Specification Outdoor Air Object Name

OS:ThermostatSetpoint:DualSetpoint,
  {61ed0d91-e218-4772-a63b-bdc7357808a0}, !- Handle
  {34f41623-4a23-46d0-b76d-8676f0945550}, !- Name
  {60182424-8018-4052-bd92-e31cee8dd8e1}, !- Heating Setpoint Temperature Schedule Name
  {42de8700-d70d-435a-ab70-84207f7f848a}; !- Cooling Setpoint Temperature Schedule Name

OS:Surface,
  {28cba38f-4d09-430f-8b91-6c7c780a17b2}, !- Handle
  Perimeter_mid_ZN_4_Wall_East,           !- Name
  Wall,                                   !- Surface Type
  {d3b0fa70-492d-49cd-bee5-3990c603f3ca}, !- Construction Name
  {30c7e07e-3b80-4696-b7d3-21fcc29eff0a}, !- Space Name
  Surface,                                !- Outside Boundary Condition
  {f5ab0ae6-51f7-40b0-9110-9e0cfddcb713}, !- Outside Boundary Condition Object
  NoSun,                                  !- Sun Exposure
  NoWind,                                 !- Wind Exposure
  ,                                       !- View Factor to Ground
  ,                                       !- Number of Vertices
  4.5732, 4.5732, 6.7056,                 !- X,Y,Z Vertex 1 {m}
  4.5732, 4.5732, 3.9624,                 !- X,Y,Z Vertex 2 {m}
  4.5732, 28.7006, 3.9624,                !- X,Y,Z Vertex 3 {m}
  4.5732, 28.7006, 6.7056;                !- X,Y,Z Vertex 4 {m}

OS:Space,
  {30c7e07e-3b80-4696-b7d3-21fcc29eff0a}, !- Handle
  Perimeter_mid_ZN_4,                     !- Name
  {ab3c6af7-cc1f-4395-bdbf-465e600db403}, !- Space Type Name
  ,                                       !- Default Construction Set Name
  ,                                       !- Default Schedule Set Name
  0,                                      !- Direction of Relative North {deg}
  0,                                      !- X Origin {m}
  0,                                      !- Y Origin {m}
  0,                                      !- Z Origin {m}
  {aff79023-ce89-45cf-b82b-78bb3e2c2a72}, !- Building Story Name
  {939e973e-ded8-43b4-9b8d-ada56633c45a}, !- Thermal Zone Name
  Yes,                                    !- Part of Total Floor Area
  {243e38f8-c2f9-4c1a-ae90-50fc246eb0df}; !- Design Specification Outdoor Air Object Name

OS:ThermostatSetpoint:DualSetpoint,
  {c5061754-7f47-4cb1-b7a9-1fecb27bf478}, !- Handle
  {959daa51-3cc2-413e-8e2b-0a6a29ca1363}, !- Name
  {60182424-8018-4052-bd92-e31cee8dd8e1}, !- Heating Setpoint Temperature Schedule Name
  {42de8700-d70d-435a-ab70-84207f7f848a}; !- Cooling Setpoint Temperature Schedule Name

OS:People:Definition,
  {f5cc1161-7bcb-40f8-bc61-0dfbb269c88d}, !- Handle
  Perimeter_top_ZN_3 People Definition,   !- Name
  Area/Person,                            !- Number of People Calculation Method
  ,                                       !- Number of People {people}
  ,                                       !- People per Space Floor Area {person/m2}
  18.58,                                  !- Space Floor Area per Person {m2/person}
  0.3,                                    !- Fraction Radiant
  ,                                       !- Sensible Heat Fraction
  ,                                       !- Carbon Dioxide Generation Rate {m3/s-W}
  No,                                     !- Enable ASHRAE 55 Comfort Warnings
  ZoneAveraged;                           !- Mean Radiant Temperature Calculation Type

OS:People,
  {54518794-2404-4413-8f06-94b3c28f0b1c}, !- Handle
  Perimeter_top_ZN_3 People,              !- Name
  {f5cc1161-7bcb-40f8-bc61-0dfbb269c88d}, !- People Definition Name
  {d4772413-3653-4e0b-b113-83fa223b145f}, !- Space or SpaceType Name
  {ebf4c721-741a-409a-8942-26389c4c5f71}, !- Number of People Schedule Name
  {257df88a-30ca-42d2-8026-435011ac90cf}, !- Activity Level Schedule Name
  ,                                       !- Surface Name/Angle Factor List Name
  {a544a00d-7c95-4bde-9ff7-5e3a9d20cab6}; !- Work Efficiency Schedule Name

OS:Space,
  {d4772413-3653-4e0b-b113-83fa223b145f}, !- Handle
  Perimeter_top_ZN_3,                     !- Name
  {ab3c6af7-cc1f-4395-bdbf-465e600db403}, !- Space Type Name
  ,                                       !- Default Construction Set Name
  ,                                       !- Default Schedule Set Name
  0,                                      !- Direction of Relative North {deg}
  0,                                      !- X Origin {m}
  0,                                      !- Y Origin {m}
  0,                                      !- Z Origin {m}
  {aff79023-ce89-45cf-b82b-78bb3e2c2a72}, !- Building Story Name
  {61417dc9-d434-4b61-96dd-ada628a0ec83}, !- Thermal Zone Name
  Yes,                                    !- Part of Total Floor Area
  {59d6c523-0917-4705-8b22-5063d89776e1}; !- Design Specification Outdoor Air Object Name

OS:ThermostatSetpoint:DualSetpoint,
  {3aca65c0-5d4f-4794-9928-16d96465de8b}, !- Handle
  {b3052b4a-22a5-4711-857d-b6af221abbe7}, !- Name
  {60182424-8018-4052-bd92-e31cee8dd8e1}, !- Heating Setpoint Temperature Schedule Name
  {42de8700-d70d-435a-ab70-84207f7f848a}; !- Cooling Setpoint Temperature Schedule Name

OS:Schedule:Compact,
  {ebf4c721-741a-409a-8942-26389c4c5f71}, !- Handle
  BLDG_OCC_SCH,                           !- Name
  {b5df9797-e12e-402b-aa3e-6b9339851987}, !- Schedule Type Limits Name
  Through: 12/31,                         !- Field 1
  For: SummerDesignDay,                   !- Field 2
  Until: 06:00,                           !- Field 3
  0.0,                                    !- Field 4
  Until: 22:00,                           !- Field 5
  1.0,                                    !- Field 6
  Until: 24:00,                           !- Field 7
  0.05,                                   !- Field 8
  For: Weekdays,                          !- Field 9
  Until: 06:00,                           !- Field 10
  0.0,                                    !- Field 11
  Until: 07:00,                           !- Field 12
  0.1,                                    !- Field 13
  Until: 08:00,                           !- Field 14
  0.2,                                    !- Field 15
  Until: 12:00,                           !- Field 16
  0.95,                                   !- Field 17
  Until: 13:00,                           !- Field 18
  0.5,                                    !- Field 19
  Until: 17:00,                           !- Field 20
  0.95,                                   !- Field 21
  Until: 18:00,                           !- Field 22
  0.7,                                    !- Field 23
  Until: 20:00,                           !- Field 24
  0.4,                                    !- Field 25
  Until: 22:00,                           !- Field 26
  0.1,                                    !- Field 27
  Until: 24:00,                           !- Field 28
  0.05,                                   !- Field 29
  For: Saturday,                          !- Field 30
  Until: 06:00,                           !- Field 31
  0.0,                                    !- Field 32
  Until: 08:00,                           !- Field 33
  0.1,                                    !- Field 34
  Until: 14:00,                           !- Field 35
  0.5,                                    !- Field 36
  Until: 17:00,                           !- Field 37
  0.1,                                    !- Field 38
  Until: 24:00,                           !- Field 39
  0.0,                                    !- Field 40
  For: AllOtherDays,                      !- Field 41
  Until: 24:00,                           !- Field 42
  0.0;                                    !- Field 43

OS:Schedule:Compact,
  {257df88a-30ca-42d2-8026-435011ac90cf}, !- Handle
  ACTIVITY_SCH,                           !- Name
  {be72fda2-456d-4070-846b-9f0135df2cd1}, !- Schedule Type Limits Name
  Through: 12/31,                         !- Field 1
  For: AllDays,                           !- Field 2
  Until: 24:00,                           !- Field 3
  120.;                                   !- Field 4

OS:ScheduleTypeLimits,
  {d2cafed6-0e0b-40b0-871b-f4b8d0b98389}, !- Handle
  {363054db-ef40-491d-a640-f07e40a9e125}; !- Name

OS:ScheduleTypeLimits,
  {be72fda2-456d-4070-846b-9f0135df2cd1}, !- Handle
  ActivityLevel,                          !- Name
  0,                                      !- Lower Limit Value {BasedOnField A4}
  ,                                       !- Upper Limit Value {BasedOnField A4}
  Continuous,                             !- Numeric Type
  ActivityLevel;                          !- Unit Type

OS:Schedule:Compact,
  {a544a00d-7c95-4bde-9ff7-5e3a9d20cab6}, !- Handle
  WORK_EFF_SCH,                           !- Name
  {b5df9797-e12e-402b-aa3e-6b9339851987}, !- Schedule Type Limits Name
  Through: 12/31,                         !- Field 1
  For: AllDays,                           !- Field 2
  Until: 24:00,                           !- Field 3
  0.0;                                    !- Field 4

OS:Meter,
  {d306a4fb-c197-41ce-8ddf-e9be30112c84}, !- Handle
  Heating:Gas,                            !- Name
  hourly,                                 !- Reporting Frequency
  False,                                  !- Meter File Only
  False;                                  !- Cumulative

OS:ThermostatSetpoint:DualSetpoint,
  {c4eed1c0-0619-4491-a69d-ca7274a9c522}, !- Handle
  {c898b58a-c2e3-476d-98cc-9a0d9b88d1f1}, !- Name
  {60182424-8018-4052-bd92-e31cee8dd8e1}, !- Heating Setpoint Temperature Schedule Name
  {42de8700-d70d-435a-ab70-84207f7f848a}; !- Cooling Setpoint Temperature Schedule Name

OS:People:Definition,
  {2e9062d9-2564-4ad6-8de9-4f9187e601fc}, !- Handle
  Perimeter_bot_ZN_2 People Definition,   !- Name
  Area/Person,                            !- Number of People Calculation Method
  ,                                       !- Number of People {people}
  ,                                       !- People per Space Floor Area {person/m2}
  18.58,                                  !- Space Floor Area per Person {m2/person}
  0.3,                                    !- Fraction Radiant
  ,                                       !- Sensible Heat Fraction
  ,                                       !- Carbon Dioxide Generation Rate {m3/s-W}
  No,                                     !- Enable ASHRAE 55 Comfort Warnings
  ZoneAveraged;                           !- Mean Radiant Temperature Calculation Type

OS:People,
  {87363075-07e5-460d-874d-d5a14a6a07ab}, !- Handle
  Perimeter_bot_ZN_2 People,              !- Name
  {2e9062d9-2564-4ad6-8de9-4f9187e601fc}, !- People Definition Name
  {36970ae4-8988-4a33-bb75-60a606efe61d}, !- Space or SpaceType Name
  {ebf4c721-741a-409a-8942-26389c4c5f71}, !- Number of People Schedule Name
  {257df88a-30ca-42d2-8026-435011ac90cf}, !- Activity Level Schedule Name
  ,                                       !- Surface Name/Angle Factor List Name
  {a544a00d-7c95-4bde-9ff7-5e3a9d20cab6}; !- Work Efficiency Schedule Name

OS:Space,
  {36970ae4-8988-4a33-bb75-60a606efe61d}, !- Handle
  Perimeter_bot_ZN_2,                     !- Name
  {ab3c6af7-cc1f-4395-bdbf-465e600db403}, !- Space Type Name
  ,                                       !- Default Construction Set Name
  ,                                       !- Default Schedule Set Name
  0,                                      !- Direction of Relative North {deg}
  0,                                      !- X Origin {m}
  0,                                      !- Y Origin {m}
  0,                                      !- Z Origin {m}
  {aff79023-ce89-45cf-b82b-78bb3e2c2a72}, !- Building Story Name
  {06420843-a1ac-4cca-a75c-e9230bde912e}, !- Thermal Zone Name
  Yes,                                    !- Part of Total Floor Area
  {97df5c84-4b62-4f93-918c-7d6fc71f5aab}; !- Design Specification Outdoor Air Object Name

OS:ThermostatSetpoint:DualSetpoint,
  {4d764e52-ff52-43d2-a4ed-2b48c00c89a7}, !- Handle
  {292320b5-fd02-49db-8cd7-3f16cf559da7}, !- Name
  {60182424-8018-4052-bd92-e31cee8dd8e1}, !- Heating Setpoint Temperature Schedule Name
  {42de8700-d70d-435a-ab70-84207f7f848a}; !- Cooling Setpoint Temperature Schedule Name

OS:Surface,
  {03bc902a-a6dc-4636-a00d-3490711ab058}, !- Handle
  FirstFloor_Plenum_Floor_5,              !- Name
  Floor,                                  !- Surface Type
  {644770df-14ba-458f-924c-66a353ca3499}, !- Construction Name
  {549959ce-df4b-4acd-8608-2dd8222de583}, !- Space Name
  Surface,                                !- Outside Boundary Condition
  {b4276ff7-a2f3-4a6f-8f0e-1c40bf8f2b02}, !- Outside Boundary Condition Object
  NoSun,                                  !- Sun Exposure
  NoWind,                                 !- Wind Exposure
  ,                                       !- View Factor to Ground
  ,                                       !- Number of Vertices
  45.3375, 28.7006, 2.7432,               !- X,Y,Z Vertex 1 {m}
  45.3375, 4.5732, 2.7432,                !- X,Y,Z Vertex 2 {m}
  4.5732, 4.5732, 2.7432,                 !- X,Y,Z Vertex 3 {m}
  4.5732, 28.7006, 2.7432;                !- X,Y,Z Vertex 4 {m}

OS:Construction,
  {644770df-14ba-458f-924c-66a353ca3499}, !- Handle
  DropCeiling,                            !- Name
  ,                                       !- Surface Rendering Name
  {821bf199-4499-4197-a220-7ad05130db7b}; !- Layer 1

OS:Material,
  {821bf199-4499-4197-a220-7ad05130db7b}, !- Handle
  Std AC02,                               !- Name
  MediumSmooth,                           !- Roughness
  0.0127,                                 !- Thickness {m}
  0.057,                                  !- Conductivity {W/m-K}
  288,                                    !- Density {kg/m3}
  1339,                                   !- Specific Heat {J/kg-K}
  0.9,                                    !- Thermal Absorptance
  0.7,                                    !- Solar Absorptance
  0.2;                                    !- Visible Absorptance

OS:Space,
  {549959ce-df4b-4acd-8608-2dd8222de583}, !- Handle
  FirstFloor_Plenum,                      !- Name
  {b10327b8-b2d6-4547-97fe-9bc4b0f10b2f}, !- Space Type Name
  ,                                       !- Default Construction Set Name
  ,                                       !- Default Schedule Set Name
  0,                                      !- Direction of Relative North {deg}
  0,                                      !- X Origin {m}
  0,                                      !- Y Origin {m}
  0,                                      !- Z Origin {m}
  {aff79023-ce89-45cf-b82b-78bb3e2c2a72}, !- Building Story Name
  ,                                       !- Thermal Zone Name
  No;                                     !- Part of Total Floor Area

OS:Surface,
  {836d884a-9d29-45a0-9bc0-0348d68bebb6}, !- Handle
  Perimeter_bot_ZN_3_Ceililng,            !- Name
  RoofCeiling,                            !- Surface Type
  {644770df-14ba-458f-924c-66a353ca3499}, !- Construction Name
  {9cb5be1a-fb24-4fd8-80fe-43351e6f15b4}, !- Space Name
  Surface,                                !- Outside Boundary Condition
  {fd18ceb2-8d86-43a7-b906-79a917aeb97f}, !- Outside Boundary Condition Object
  NoSun,                                  !- Sun Exposure
  NoWind,                                 !- Wind Exposure
  ,                                       !- View Factor to Ground
  ,                                       !- Number of Vertices
  45.3375, 28.7006, 2.7432,               !- X,Y,Z Vertex 1 {m}
  49.911, 33.2738, 2.7432,                !- X,Y,Z Vertex 2 {m}
  0, 33.2738, 2.7432,                     !- X,Y,Z Vertex 3 {m}
  4.5732, 28.7006, 2.7432;                !- X,Y,Z Vertex 4 {m}

OS:ElectricEquipment:Definition,
  {c3be1480-452a-48c3-8ab1-bab899cb14f4}, !- Handle
  Perimeter_top_ZN_2_PlugMisc_Equip Definition, !- Name
  Watts/Area,                             !- Design Level Calculation Method
  ,                                       !- Design Level {W}
  10.76,                                  !- Watts per Space Floor Area {W/m2}
  ,                                       !- Watts per Person {W/person}
  0,                                      !- Fraction Latent
  0.5,                                    !- Fraction Radiant
  0;                                      !- Fraction Lost

OS:ElectricEquipment,
  {8f375393-6fe1-4564-ab5f-2a180a9a6c88}, !- Handle