
OS:Version,
  {53d4b72d-2b82-4cd6-8904-473b14c7b445}, !- Handle
  1.8.5;                                  !- Version Identifier

OS:Site,
  {4a197667-89de-4a94-8098-48cda30fcd0c}, !- Handle
  USA IL-CHICAGO-OHARE,                   !- Name
  41.77,                                  !- Latitude {deg}
  -87.75,                                 !- Longitude {deg}
  -6,                                     !- Time Zone {hr}
  190,                                    !- Elevation {m}
  City;                                   !- Terrain

OS:SimulationControl,
  {920171f2-9dc0-463f-b2cb-4c593e34620c}, !- Handle
  Yes,                                    !- Do Zone Sizing Calculation
  Yes,                                    !- Do System Sizing Calculation
  Yes,                                    !- Do Plant Sizing Calculation
  No,                                     !- Run Simulation for Sizing Periods
  Yes,                                    !- Run Simulation for Weather File Run Periods
  0.04,                                   !- Loads Convergence Tolerance Value
  0.2,                                    !- Temperature Convergence Tolerance Value {deltaC}
  FullInteriorAndExterior,                !- Solar Distribution
  25,                                     !- Maximum Number of Warmup Days
  6;                                      !- Minimum Number of Warmup Days

OS:Schedule:Compact,
  {0903ace2-0124-48e8-ad3a-8196710cf635}, !- Handle
  SWHSys1 Water Heater Setpoint Temperature Schedule Name, !- Name
  {185ca1a6-426a-48fc-9946-84cb2b70236e}, !- Schedule Type Limits Name
  Through: 12/31,                         !- Field 1
  For: AllDays,                           !- Field 2
  Until: 24:00,                           !- Field 3
  60.0;                                   !- Field 4

OS:ScheduleTypeLimits,
  {185ca1a6-426a-48fc-9946-84cb2b70236e}, !- Handle
  Temperature,                            !- Name
  -60,                                    !- Lower Limit Value {BasedOnField A4}
  200,                                    !- Upper Limit Value {BasedOnField A4}
  CONTINUOUS,                             !- Numeric Type
  Temperature;                            !- Unit Type

OS:Construction,
  {845d60e9-53e5-46e5-a9fa-b0b83ed720c8}, !- Handle
  int-walls,                              !- Name
  ,                                       !- Surface Rendering Name
  {d81db1a9-e66a-4020-ab34-ee3d35dbc23f}, !- Layer 1
  {d81db1a9-e66a-4020-ab34-ee3d35dbc23f}; !- Layer 2

OS:Material,
  {d81db1a9-e66a-4020-ab34-ee3d35dbc23f}, !- Handle
  1/2IN Gypsum,                           !- Name
  Smooth,                                 !- Roughness
  0.0127,                                 !- Thickness {m}
  0.16,                                   !- Conductivity {W/m-K}
  784.9,                                  !- Density {kg/m3}
  830,                                    !- Specific Heat {J/kg-K}
  0.9,                                    !- Thermal Absorptance
  0.92,                                   !- Solar Absorptance
  0.92;                                   !- Visible Absorptance

OS:Lights:Definition,
  {0df5a7ed-41b3-47c1-930d-fae3d7de8ff6}, !- Handle
  Core_mid_Lights Definition,             !- Name
  Watts/Area,                             !- Design Level Calculation Method
  ,                                       !- Lighting Level {W}
  10.76,                                  !- Watts per Space Floor Area {W/m2}
  ,                                       !- Watts per Person {W/person}
  0.4,                                    !- Fraction Radiant
  0.2,                                    !- Fraction Visible
  0.4,                                    !- Return Air Fraction
  No;                                     !- Return Air Fraction Calculated from Plenum Temperature

OS:Lights,
  {273b2d13-441b-4b15-ad97-a52cb6610f8c}, !- Handle
  Core_mid_Lights,                        !- Name
  {0df5a7ed-41b3-47c1-930d-fae3d7de8ff6}, !- Lights Definition Name
  {b710fa8c-35c6-4cf4-88f5-0ffc9dbf5bda}, !- Space or SpaceType Name
  {664e2c27-d1b2-4332-a23c-82d37589486c}, !- Schedule Name
  1,                                      !- Fraction Replaceable
  ,                                       !- Multiplier
  General;                                !- End-Use Subcategory

OS:Space,
  {b710fa8c-35c6-4cf4-88f5-0ffc9dbf5bda}, !- Handle
  Core_mid,                               !- Name
  {63dc0936-3312-4ace-bdf3-3d472eb166fb}, !- Space Type Name
  ,                                       !- Default Construction Set Name
  ,                                       !- Default Schedule Set Name
  0,                                      !- Direction of Relative North {deg}
  0,                                      !- X Origin {m}
  0,                                      !- Y Origin {m}
  0,                                      !- Z Origin {m}
  {2685a4fc-aff8-4008-8b95-61ace1a1a6d0}, !- Building Story Name
  {96232108-394d-45bc-b77a-0a3c15072b60}, !- Thermal Zone Name
  Yes,                                    !- Part of Total Floor Area
  {5343e6ba-b725-41f8-9481-fdfa20d6edd7}; !- Design Specification Outdoor Air Object Name

OS:Schedule:Compact,
  {2237585f-3ca2-4d65-8c4f-b3db8d021a94}, !- Handle
  HTGSETP_SCH,                            !- Name
  {185ca1a6-426a-48fc-9946-84cb2b70236e}, !- Schedule Type Limits Name
  Through: 12/31,                         !- Field 1
  For: Weekdays,                          !- Field 2
  Until: 06:00,                           !- Field 3
  15.6,                                   !- Field 4
  Until: 22:00,                           !- Field 5
  21.0,                                   !- Field 6
  Until: 24:00,                           !- Field 7
  15.6,                                   !- Field 8
  For SummerDesignDay,                    !- Field 9
  Until: 24:00,                           !- Field 10
  15.6,                                   !- Field 11
  For: Saturday,                          !- Field 12
  Until: 06:00,                           !- Field 13
  15.6,                                   !- Field 14
  Until: 18:00,                           !- Field 15
  21.0,                                   !- Field 16
  Until: 24:00,                           !- Field 17
  15.6,                                   !- Field 18
  For: WinterDesignDay,                   !- Field 19
  Until: 24:00,                           !- Field 20
  21.0,                                   !- Field 21
  For: AllOtherDays,                      !- Field 22
  Until: 24:00,                           !- Field 23
  15.6;                                   !- Field 24

OS:Schedule:Compact,
  {dfd7a5f4-81ae-4dee-9428-25a5edf71851}, !- Handle
  CLGSETP_SCH,                            !- Name
  {185ca1a6-426a-48fc-9946-84cb2b70236e}, !- Schedule Type Limits Name
  Through: 12/31,                         !- Field 1
  For: Weekdays SummerDesignDay,          !- Field 2
  Until: 06:00,                           !- Field 3
  26.7,                                   !- Field 4
  Until: 22:00,                           !- Field 5
  24.0,                                   !- Field 6
  Until: 24:00,                           !- Field 7
  26.7,                                   !- Field 8
  For: Saturday,                          !- Field 9
  Until: 06:00,                           !- Field 10
  26.7,                                   !- Field 11
  Until: 18:00,                           !- Field 12
  24.0,                                   !- Field 13
  Until: 24:00,                           !- Field 14
  26.7,                                   !- Field 15
  For WinterDesignDay,                    !- Field 16
  Until: 24:00,                           !- Field 17
  26.7,                                   !- Field 18
  For: AllOtherDays,                      !- Field 19
  Until: 24:00,                           !- Field 20
  26.7;                                   !- Field 21

OS:Schedule:Compact,
  {664e2c27-d1b2-4332-a23c-82d37589486c}, !- Handle
  BLDG_LIGHT_SCH,                         !- Name
  {88471339-5707-4aad-a314-e73456be1142}, !- Schedule Type Limits Name
  Through: 12/31,                         !- Field 1
  For: Weekdays,                          !- Field 2
  Until: 05:00,                           !- Field 3
  0.05,                                   !- Field 4
  Until: 07:00,                           !- Field 5
  0.1,                                    !- Field 6
  Until: 08:00,                           !- Field 7
  0.3,                                    !- Field 8
  Until: 17:00,                           !- Field 9
  0.9,                                    !- Field 10
  Until: 18:00,                           !- Field 11
  0.7,                                    !- Field 12
  Until: 20:00,                           !- Field 13
  0.5,                                    !- Field 14
  Until: 22:00,                           !- Field 15
  0.3,                                    !- Field 16
  Until: 23:00,                           !- Field 17
  0.1,                                    !- Field 18
  Until: 24:00,                           !- Field 19
  0.05,                                   !- Field 20
  For: Saturday,                          !- Field 21
  Until: 06:00,                           !- Field 22
  0.05,                                   !- Field 23
  Until: 08:00,                           !- Field 24
  0.1,                                    !- Field 25
  Until: 14:00,                           !- Field 26
  0.5,                                    !- Field 27
  Until: 17:00,                           !- Field 28
  0.15,                                   !- Field 29
  Until: 24:00,                           !- Field 30
  0.05,                                   !- Field 31
  For: SummerDesignDay,                   !- Field 32
  Until: 24:00,                           !- Field 33
  1.0,                                    !- Field 34
  For: WinterDesignDay,                   !- Field 35
  Until: 24:00,                           !- Field 36
  0.0,                                    !- Field 37
  For: AllOtherDays,                      !- Field 38
  Until: 24:00,                           !- Field 39
  0.05;                                   !- Field 40

OS:ScheduleTypeLimits,
  {88471339-5707-4aad-a314-e73456be1142}, !- Handle
  Fraction,                               !- Name
  0,                                      !- Lower Limit Value {BasedOnField A4}
  1,                                      !- Upper Limit Value {BasedOnField A4}
  CONTINUOUS;                             !- Numeric Type

OS:People:Definition,
  {bda499be-1801-4404-ac32-4fd6ced5fb7c}, !- Handle
  Perimeter_bot_ZN_2 People Definition,   !- Name
  Area/Person,                            !- Number of People Calculation Method
  ,                                       !- Number of People {people}
  ,                                       !- People per Space Floor Area {person/m2}
  18.58,                                  !- Space Floor Area per Person {m2/person}
  0.3,                                    !- Fraction Radiant
  ,                                       !- Sensible Heat Fraction
  ,                                       !- Carbon Dioxide Generation Rate {m3/s-W}
  No,                                     !- Enable ASHRAE 55 Comfort Warnings
  ZoneAveraged;                           !- Mean Radiant Temperature Calculation Type

OS:People,
  {ef357f35-6c45-4f69-b3f3-136c9957d8fc}, !- Handle
  Perimeter_bot_ZN_2 People,              !- Name
  {bda499be-1801-4404-ac32-4fd6ced5fb7c}, !- People Definition Name
  {e881f2f7-1d4d-4c79-bed3-9ff67a1c8d6d}, !- Space or SpaceType Name
  {99e6f208-9144-453f-bd7b-7ef3c6cb0737}, !- Number of People Schedule Name
  {5febe91b-66f1-4b23-8b26-43f0470c30f1}, !- Activity Level Schedule Name
  ,                                       !- Surface Name/Angle Factor List Name
  {224f0308-8198-4d2a-8e4a-398a5b16ba7f}; !- Work Efficiency Schedule Name

OS:Space,
  {e881f2f7-1d4d-4c79-bed3-9ff67a1c8d6d}, !- Handle
  Perimeter_bot_ZN_2,                     !- Name
  {63dc0936-3312-4ace-bdf3-3d472eb166fb}, !- Space Type Name
  ,                                       !- Default Construction Set Name
  ,                                       !- Default Schedule Set Name
  0,                                      !- Direction of Relative North {deg}
  0,                                      !- X Origin {m}
  0,                                      !- Y Origin {m}
  0,                                      !- Z Origin {m}
  {2685a4fc-aff8-4008-8b95-61ace1a1a6d0}, !- Building Story Name
  {c034471e-f179-4b9b-b94a-312756182e7e}, !- Thermal Zone Name
  Yes,                                    !- Part of Total Floor Area
  {758bd2c9-7cc8-4ded-9f23-8e0e7d5d5b1c}; !- Design Specification Outdoor Air Object Name

OS:Schedule:Compact,
  {99e6f208-9144-453f-bd7b-7ef3c6cb0737}, !- Handle
  BLDG_OCC_SCH,                           !- Name
  {88471339-5707-4aad-a314-e73456be1142}, !- Schedule Type Limits Name
  Through: 12/31,                         !- Field 1
  For: SummerDesignDay,                   !- Field 2
  Until: 06:00,                           !- Field 3
  0.0,                                    !- Field 4
  Until: 22:00,                           !- Field 5
  1.0,                                    !- Field 6
  Until: 24:00,                           !- Field 7
  0.05,                                   !- Field 8
  For: Weekdays,                          !- Field 9
  Until: 06:00,                           !- Field 10
  0.0,                                    !- Field 11
  Until: 07:00,                           !- Field 12
  0.1,                                    !- Field 13
  Until: 08:00,                           !- Field 14
  0.2,                                    !- Field 15
  Until: 12:00,                           !- Field 16
  0.95,                                   !- Field 17
  Until: 13:00,                           !- Field 18
  0.5,                                    !- Field 19
  Until: 17:00,                           !- Field 20
  0.95,                                   !- Field 21
  Until: 18:00,                           !- Field 22
  0.7,                                    !- Field 23
  Until: 20:00,                           !- Field 24
  0.4,                                    !- Field 25
  Until: 22:00,                           !- Field 26
  0.1,                                    !- Field 27
  Until: 24:00,                           !- Field 28
  0.05,                                   !- Field 29
  For: Saturday,                          !- Field 30
  Until: 06:00,                           !- Field 31
  0.0,                                    !- Field 32
  Until: 08:00,                           !- Field 33
  0.1,                                    !- Field 34
  Until: 14:00,                           !- Field 35
  0.5,                                    !- Field 36
  Until: 17:00,                           !- Field 37
  0.1,                                    !- Field 38
  Until: 24:00,                           !- Field 39
  0.0,                                    !- Field 40
  For: AllOtherDays,                      !- Field 41
  Until: 24:00,                           !- Field 42
  0.0;                                    !- Field 43

OS:Schedule:Compact,
  {5febe91b-66f1-4b23-8b26-43f0470c30f1}, !- Handle
  ACTIVITY_SCH,                           !- Name
  {8328bc41-9c03-41d9-90a0-5cc834bee034}, !- Schedule Type Limits Name
  Through: 12/31,                         !- Field 1
  For: AllDays,                           !- Field 2
  Until: 24:00,                           !- Field 3
  120.;                                   !- Field 4

OS:ScheduleTypeLimits,
  {82231be4-b538-44cf-9def-26d96db1bc8e}, !- Handle
  {cb255f90-3a90-49ef-b895-002d1ab9b61f}; !- Name

OS:ScheduleTypeLimits,
  {8328bc41-9c03-41d9-90a0-5cc834bee034}, !- Handle
  ActivityLevel,                          !- Name
  0,                                      !- Lower Limit Value {BasedOnField A4}
  ,                                       !- Upper Limit Value {BasedOnField A4}
  Continuous,                             !- Numeric Type
  ActivityLevel;                          !- Unit Type

OS:Schedule:Compact,
  {224f0308-8198-4d2a-8e4a-398a5b16ba7f}, !- Handle
  WORK_EFF_SCH,                           !- Name
  {88471339-5707-4aad-a314-e73456be1142}, !- Schedule Type Limits Name
  Through: 12/31,                         !- Field 1
  For: AllDays,                           !- Field 2
  Until: 24:00,                           !- Field 3
  0.0;                                    !- Field 4

OS:Surface,
  {def4159a-7b00-4236-abca-19b91fde1233}, !- Handle
  Perimeter_top_Plenum_Wall_West,         !- Name
  Wall,                                   !- Surface Type
  {872854ca-3165-4ba3-af5f-9b9d718ac013}, !- Construction Name
  {d61d7d5a-21f7-45d0-b039-4d4450a2f1b9}, !- Space Name
  Outdoors,                               !- Outside Boundary Condition
  ,                                       !- Outside Boundary Condition Object
  SunExposed,                             !- Sun Exposure
  WindExposed,                            !- Wind Exposure
  ,                                       !- View Factor to Ground
  ,                                       !- Number of Vertices
  0, 33.2738, 11.8872,                    !- X,Y,Z Vertex 1 {m}
  0, 33.2738, 10.668,                     !- X,Y,Z Vertex 2 {m}
  0, 0, 10.668,                           !- X,Y,Z Vertex 3 {m}
  0, 0, 11.8872;                          !- X,Y,Z Vertex 4 {m}

OS:Construction,
  {872854ca-3165-4ba3-af5f-9b9d718ac013}, !- Handle
  Steel Frame Non-res Ext Wall,           !- Name
  ,                                       !- Surface Rendering Name
  {df647ac0-2314-4aa8-9fbb-dd1769861644}, !- Layer 1
  {7ad491e0-cf17-4ff0-9ed3-1ae1aedd17fe}, !- Layer 2
  {d81db1a9-e66a-4020-ab34-ee3d35dbc23f}; !- Layer 3

OS:Material,
  {df647ac0-2314-4aa8-9fbb-dd1769861644}, !- Handle
  Wood Siding,                            !- Name
  MediumSmooth,                           !- Roughness
  0.01,                                   !- Thickness {m}
  0.11,                                   !- Conductivity {W/m-K}
  544.62,                                 !- Density {kg/m3}
  1210,                                   !- Specific Heat {J/kg-K}
  0.9,                                    !- Thermal Absorptance
  0.78,                                   !- Solar Absorptance
  0.78;                                   !- Visible Absorptance

OS:Material,
  {7ad491e0-cf17-4ff0-9ed3-1ae1aedd17fe}, !- Handle
  Steel Frame NonRes Wall Insulation,     !- Name
  MediumRough,                            !- Roughness
  0.0870564552646045,                     !- Thickness {m}
  0.049,                                  !- Conductivity {W/m-K}
  265,                                    !- Density {kg/m3}
  836.8,                                  !- Specific Heat {J/kg-K}
  0.9,                                    !- Thermal Absorptance
  0.7,                                    !- Solar Absorptance
  0.7;                                    !- Visible Absorptance

OS:Space,
  {d61d7d5a-21f7-45d0-b039-4d4450a2f1b9}, !- Handle
  TopFloor_Plenum,                        !- Name
  {8913f3f6-7edb-4b79-81a6-73feff82d9bf}, !- Space Type Name
  ,                                       !- Default Construction Set Name
  ,                                       !- Default Schedule Set Name
  0,                                      !- Direction of Relative North {deg}
  0,                                      !- X Origin {m}
  0,                                      !- Y Origin {m}
  0,                                      !- Z Origin {m}
  {2685a4fc-aff8-4008-8b95-61ace1a1a6d0}, !- Building Story Name
  ,                                       !- Thermal Zone Name
  No;                                     !- Part of Total Floor Area

OS:Space,
  {75e94746-c025-4ee9-81ac-24c607cdb0f7}, !- Handle
  Perimeter_mid_ZN_2,                     !- Name
  {63dc0936-3312-4ace-bdf3-3d472eb166fb}, !- Space Type Name
  ,                                       !- Default Construction Set Name
  ,                                       !- Default Schedule Set Name
  0,                                      !- Direction of Relative North {deg}
  0,                                      !- X Origin {m}
  0,                                      !- Y Origin {m}
  0,                                      !- Z Origin {m}
  {2685a4fc-aff8-4008-8b95-61ace1a1a6d0}, !- Building Story Name
  {c034471e-f179-4b9b-b94a-312756182e7e}, !- Thermal Zone Name
  Yes,                                    !- Part of Total Floor Area
  {8435a5c5-34b3-4c2e-aac6-1f731962f7fe}; !- Design Specification Outdoor Air Object Name

OS:Space,
  {6f455854-ba94-4858-b97e-58c9d8c16d34}, !- Handle
  Core_top,                               !- Name
  {63dc0936-3312-4ace-bdf3-3d472eb166fb}, !- Space Type Name
  ,                                       !- Default Construction Set Name
  ,                                       !- Default Schedule Set Name
  0,                                      !- Direction of Relative North {deg}
  0,                                      !- X Origin {m}
  0,                                      !- Y Origin {m}
  0,                                      !- Z Origin {m}
  {2685a4fc-aff8-4008-8b95-61ace1a1a6d0}, !- Building Story Name
  {96232108-394d-45bc-b77a-0a3c15072b60}, !- Thermal Zone Name
  Yes,                                    !- Part of Total Floor Area
  {dc14f338-f036-48aa-9572-c53627d6ff8f}; !- Design Specification Outdoor Air Object Name

OS:Surface,
  {ff3adc41-0006-4ccf-930f-9befc23d0e00}, !- Handle
  Perimeter_mid_ZN_4_Wall_South,          !- Name
  Wall,                                   !- Surface Type
  {845d60e9-53e5-46e5-a9fa-b0b83ed720c8}, !- Construction Name
  {68a1741a-df24-4846-bf53-7619de6f3932}, !- Space Name
  Surface,                                !- Outside Boundary Condition
  {876a4040-0960-43fb-96cb-4664c9f6b28d}, !- Outside Boundary Condition Object
  NoSun,                                  !- Sun Exposure
  NoWind,                                 !- Wind Exposure
  ,                                       !- View Factor to Ground
  ,                                       !- Number of Vertices
  0, 0, 6.7056,                           !- X,Y,Z Vertex 1 {m}
  0, 0, 3.9624,                           !- X,Y,Z Vertex 2 {m}
  4.5732, 4.5732, 3.9624,                 !- X,Y,Z Vertex 3 {m}
  4.5732, 4.5732, 6.7056;                 !- X,Y,Z Vertex 4 {m}

OS:Space,
  {68a1741a-df24-4846-bf53-7619de6f3932}, !- Handle
  Perimeter_mid_ZN_4,                     !- Name
  {63dc0936-3312-4ace-bdf3-3d472eb166fb}, !- Space Type Name
  ,                                       !- Default Construction Set Name
  ,                                       !- Default Schedule Set Name
  0,                                      !- Direction of Relative North {deg}
  0,                                      !- X Origin {m}
  0,                                      !- Y Origin {m}
  0,                                      !- Z Origin {m}
  {2685a4fc-aff8-4008-8b95-61ace1a1a6d0}, !- Building Story Name
  {f93d5701-0d09-48f4-8331-f66ed34ac196}, !- Thermal Zone Name
  Yes,                                    !- Part of Total Floor Area
  {4dc79157-e7cd-47e8-a579-c07f0a75709d}; !- Design Specification Outdoor Air Object Name

OS:InternalMass:Definition,
  {7e07193d-1212-4312-aedd-3b1fb68997d6}, !- Handle
  Core_mid Internal Mass Definition,      !- Name
  {cc58ce70-173c-49b2-bd2a-6fe6fd9489a4}, !- Construction Name
  SurfaceArea,                            !- Design Level Calculation Method
  1967.0731,                              !- Surface Area {m2}
  ,                                       !- Surface Area per Space Floor Area {dimensionless}
  ;                                       !- Surface Area per Person {m2/person}

OS:Construction,
  {cc58ce70-173c-49b2-bd2a-6fe6fd9489a4}, !- Handle
  InteriorFurnishings,                    !- Name
  ,                                       !- Surface Rendering Name
  {bba31b8a-2e0d-4fb2-be17-5e89b3d9830d}; !- Layer 1

OS:Material,
  {bba31b8a-2e0d-4fb2-be17-5e89b3d9830d}, !- Handle
  Std Wood 6inch,                         !- Name
  MediumSmooth,                           !- Roughness
  0.15,                                   !- Thickness {m}
  0.12,                                   !- Conductivity {W/m-K}
  540,                                    !- Density {kg/m3}
  1210,                                   !- Specific Heat {J/kg-K}
  0.9,                                    !- Thermal Absorptance
  0.7,                                    !- Solar Absorptance
  0.7;                                    !- Visible Absorptance

OS:InternalMass,
  {3fdfb54a-ec13-45af-b21f-3ca953f118cf}, !- Handle
  Core_mid Internal Mass,                 !- Name
  {7e07193d-1212-4312-aedd-3b1fb68997d6}, !- Internal Mass Definition Name
  {b710fa8c-35c6-4cf4-88f5-0ffc9dbf5bda}; !- Space or SpaceType Name

OS:Schedule:Compact,
  {1fef0a00-efc0-4e61-afe4-222bd8f8e7db}, !- Handle
  Water Equipment Sensible fract sched,   !- Name
  {88471339-5707-4aad-a314-e73456be1142}, !- Schedule Type Limits Name
  Through: 12/31,                         !- Field 1
  For: AllDays,                           !- Field 2
  Until: 24:00,                           !- Field 3
  0.2;                                    !- Field 4

OS:Surface,
  {3e1575cc-be9a-4699-9952-fe471a6c4858}, !- Handle
  Perimeter_mid_ZN_3_Wall_West,           !- Name
  Wall,                                   !- Surface Type
  {845d60e9-53e5-46e5-a9fa-b0b83ed720c8}, !- Construction Name
  {f93c34ae-d399-4deb-9411-fe682ac1b34d}, !- Space Name
  Surface,                                !- Outside Boundary Condition
  {5c7381c3-3d09-45b5-9d3b-b237c4e38514}, !- Outside Boundary Condition Object
  NoSun,                                  !- Sun Exposure
  NoWind,                                 !- Wind Exposure
  ,                                       !- View Factor to Ground
  ,                                       !- Number of Vertices
  0, 33.2738, 6.7056,                     !- X,Y,Z Vertex 1 {m}
  0, 33.2738, 3.9624,                     !- X,Y,Z Vertex 2 {m}
  4.5732, 28.7006, 3.9624,                !- X,Y,Z Vertex 3 {m}
  4.5732, 28.7006, 6.7056;                !- X,Y,Z Vertex 4 {m}

OS:Space,
  {f93c34ae-d399-4deb-9411-fe682ac1b34d}, !- Handle
  Perimeter_mid_ZN_3,                     !- Name
  {63dc0936-3312-4ace-bdf3-3d472eb166fb}, !- Space Type Name
  ,                                       !- Default Construction Set Name
  ,                                       !- Default Schedule Set Name
  0,                                      !- Direction of Relative North {deg}
  0,                                      !- X Origin {m}
  0,                                      !- Y Origin {m}
  0,                                      !- Z Origin {m}
  {2685a4fc-aff8-4008-8b95-61ace1a1a6d0}, !- Building Story Name
  {50baf583-ab30-4e40-87ea-ddd04bdf66dd}, !- Thermal Zone Name
  Yes,                                    !- Part of Total Floor Area
  {e6a3fb79-ba05-4cd5-a443-f33a9e77defb}; !- Design Specification Outdoor Air Object Name

OS:Meter,
  {ec5e7860-a373-425a-8b85-c483cf6e24fb}, !- Handle
  Pumps:Electricity,                      !- Name
  hourly,                                 !- Reporting Frequency
  False,                                  !- Meter File Only
  False;                                  !- Cumulative

OS:Schedule:Compact,
  {775dd0fd-0bc9-4243-bbd4-76198e014f15}, !- Handle
  SWHSys1 Water Heater Ambient Temperature Schedule Name, !- Name
  {185ca1a6-426a-48fc-9946-84cb2b70236e}, !- Schedule Type Limits Name
  Through: 12/31,                         !- Field 1
  For: AllDays,                           !- Field 2
  Until: 24:00,                           !- Field 3
  22.0;                                   !- Field 4

OS:ScheduleTypeLimits,
  {f76e77b9-7df8-4b93-90d6-54d827193409}, !- Handle
  On/Off,                                 !- Name
  0,                                      !- Lower Limit Value {BasedOnField A4}
  1,                                      !- Upper Limit Value {BasedOnField A4}
  DISCRETE,                               !- Numeric Type
  Availability;                           !- Unit Type

OS:Surface,
  {98c72be8-e837-4bd2-9bd7-e0d5e4dbc208}, !- Handle
  Perimeter_top_ZN_4_Ceiling,             !- Name
  RoofCeiling,                            !- Surface Type
  {5eaa52a9-a04d-4242-a57e-a00c7528b0c6}, !- Construction Name
  {eef9719f-41d0-4907-9a8a-02260f0b7f48}, !- Space Name
  Surface,                                !- Outside Boundary Condition
  {7d293857-789c-48d1-acc7-cc8043b67e64}, !- Outside Boundary Condition Object
  NoSun,                                  !- Sun Exposure
  NoWind,                                 !- Wind Exposure
  ,                                       !- View Factor to Ground
  ,                                       !- Number of Vertices
  0, 0, 10.668,                           !- X,Y,Z Vertex 1 {m}
  4.5732, 4.5732, 10.668,                 !- X,Y,Z Vertex 2 {m}
  4.5732, 28.7006, 10.668,                !- X,Y,Z Vertex 3 {m}
  0, 33.2738, 10.668;                     !- X,Y,Z Vertex 4 {m}

OS:Construction,
  {5eaa52a9-a04d-4242-a57e-a00c7528b0c6}, !- Handle
  DropCeiling,                            !- Name
  ,                                       !- Surface Rendering Name
  {90308812-d075-4506-a3d2-b106daf43097}; !- Layer 1

OS:Material,
  {90308812-d075-4506-a3d2-b106daf43097}, !- Handle
  Std AC02,                               !- Name
  MediumSmooth,                           !- Roughness
  0.0127,                                 !- Thickness {m}