
OS:Version,
  {f074934d-4ed0-4626-a56a-12cc533655f9}, !- Handle
  1.8.0;                                  !- Version Identifier

OS:Site,
  {9f21810f-e825-4523-94ad-73cfcd109f0a}, !- Handle
  USA IL-CHICAGO-OHARE,                   !- Name
  41.77,                                  !- Latitude {deg}
  -87.75,                                 !- Longitude {deg}
  -6,                                     !- Time Zone {hr}
  190,                                    !- Elevation {m}
  City;                                   !- Terrain

OS:SimulationControl,
  {91d62cad-68c3-41e1-9da5-70a43c0a6f37}, !- Handle
  Yes,                                    !- Do Zone Sizing Calculation
  Yes,                                    !- Do System Sizing Calculation
  Yes,                                    !- Do Plant Sizing Calculation
  No,                                     !- Run Simulation for Sizing Periods
  Yes,                                    !- Run Simulation for Weather File Run Periods
  0.04,                                   !- Loads Convergence Tolerance Value
  0.2,                                    !- Temperature Convergence Tolerance Value {deltaC}
  FullInteriorAndExterior,                !- Solar Distribution
  25,                                     !- Maximum Number of Warmup Days
  6;                                      !- Minimum Number of Warmup Days

OS:Space,
  {922c6101-b652-472f-a190-32cb00cf73cd}, !- Handle
  M SW Apartment,                         !- Name
  {7489f9c8-449f-4d7b-b4f3-d3e46d5959c5}, !- Space Type Name
  ,                                       !- Default Construction Set Name
  ,                                       !- Default Schedule Set Name
  0,                                      !- Direction of Relative North {deg}
  0,                                      !- X Origin {m}
  0,                                      !- Y Origin {m}
  3.0478,                                 !- Z Origin {m}
  {efbf85e9-37fe-46f9-91e9-9092380cbe7a}, !- Building Story Name
  {39399f55-874a-4b02-91c2-c309db615254}, !- Thermal Zone Name
  Yes,                                    !- Part of Total Floor Area
  {54d674e9-b9cf-47cd-9be8-6a7fc7c87128}; !- Design Specification Outdoor Air Object Name

OS:ThermostatSetpoint:DualSetpoint,
  {4eb91f11-5cd8-4395-8b60-9ef9eb78964a}, !- Handle
  {98a764ee-dd37-44fe-a812-7fdb0e6c2b5f}, !- Name
  {5c97a0fb-bdf4-4931-94be-d33beddae0d1}, !- Heating Setpoint Temperature Schedule Name
  {68cb3615-8289-4be9-8140-2f2a3a5ea363}; !- Cooling Setpoint Temperature Schedule Name

OS:Schedule:Compact,
  {5c97a0fb-bdf4-4931-94be-d33beddae0d1}, !- Handle
  APT_HTGSETP_SCH,                        !- Name
  {a72c2838-16d7-49ee-91e4-b9052cde1460}, !- Schedule Type Limits Name
  THROUGH: 12/31,                         !- Field 1
  FOR:AllDays,                            !- Field 2
  UNTIL: 24:00,                           !- Field 3
  21.1;                                   !- Field 4

OS:ScheduleTypeLimits,
  {a72c2838-16d7-49ee-91e4-b9052cde1460}, !- Handle
  Temperature,                            !- Name
  -60,                                    !- Lower Limit Value {BasedOnField A4}
  200,                                    !- Upper Limit Value {BasedOnField A4}
  CONTINUOUS,                             !- Numeric Type
  Temperature;                            !- Unit Type

OS:Schedule:Compact,
  {68cb3615-8289-4be9-8140-2f2a3a5ea363}, !- Handle
  APT_CLGSETP_SCH,                        !- Name
  {a72c2838-16d7-49ee-91e4-b9052cde1460}, !- Schedule Type Limits Name
  THROUGH: 12/31,                         !- Field 1
  FOR:AllDays,                            !- Field 2
  UNTIL: 24:00,                           !- Field 3
  23.9;                                   !- Field 4

OS:DesignSpecification:OutdoorAir,
  {54d674e9-b9cf-47cd-9be8-6a7fc7c87128}, !- Handle
  SZ DSOA M SW Apartment,                 !- Name
  ,                                       !- Outdoor Air Method
  ,                                       !- Outdoor Air Flow per Person {m3/s-person}
  ,                                       !- Outdoor Air Flow per Floor Area {m3/s-m2}
  0.04248,                                !- Outdoor Air Flow Rate {m3/s}
  ,                                       !- Outdoor Air Flow Air Changes per Hour {1/hr}
  ;                                       !- Outdoor Air Flow Rate Fraction Schedule Name

OS:Lights:Definition,
  {80eaee80-70a8-4e2f-83eb-f070ec8ba80f}, !- Handle
  M SE Apartment_Lights Definition,       !- Name
  Watts/Area,                             !- Design Level Calculation Method
  ,                                       !- Lighting Level {W}
  3.88,                                   !- Watts per Space Floor Area {W/m2}
  ,                                       !- Watts per Person {W/person}
  0.7,                                    !- Fraction Radiant
  0.2,                                    !- Fraction Visible
  0,                                      !- Return Air Fraction
  No;                                     !- Return Air Fraction Calculated from Plenum Temperature

OS:Lights,
  {6282e42d-f09e-405b-b524-9bde5b04160e}, !- Handle
  M SE Apartment_Lights,                  !- Name
  {80eaee80-70a8-4e2f-83eb-f070ec8ba80f}, !- Lights Definition Name
  {d05ff5be-9baa-4824-ae64-23f0c381707b}, !- Space or SpaceType Name
  {cdff9332-e82f-411d-8b20-116475debb1a}, !- Schedule Name
  1,                                      !- Fraction Replaceable
  ,                                       !- Multiplier
  General;                                !- End-Use Subcategory

OS:Space,
  {d05ff5be-9baa-4824-ae64-23f0c381707b}, !- Handle
  M SE Apartment,                         !- Name
  {7489f9c8-449f-4d7b-b4f3-d3e46d5959c5}, !- Space Type Name
  ,                                       !- Default Construction Set Name
  ,                                       !- Default Schedule Set Name
  0,                                      !- Direction of Relative North {deg}
  34.7455,                                !- X Origin {m}
  0,                                      !- Y Origin {m}
  3.0478,                                 !- Z Origin {m}
  {efbf85e9-37fe-46f9-91e9-9092380cbe7a}, !- Building Story Name
  {39399f55-874a-4b02-91c2-c309db615254}, !- Thermal Zone Name
  Yes,                                    !- Part of Total Floor Area
  {748122e9-5af2-443f-892b-38207e46d304}; !- Design Specification Outdoor Air Object Name

OS:ThermostatSetpoint:DualSetpoint,
  {a753f13b-9007-43ce-a17a-fe2a95b0cdab}, !- Handle
  {d07e0040-635d-418f-9f34-53afadbc7d56}, !- Name
  {5c97a0fb-bdf4-4931-94be-d33beddae0d1}, !- Heating Setpoint Temperature Schedule Name
  {68cb3615-8289-4be9-8140-2f2a3a5ea363}; !- Cooling Setpoint Temperature Schedule Name

OS:Schedule:Compact,
  {cdff9332-e82f-411d-8b20-116475debb1a}, !- Handle
  APT_LIGHT_SCH,                          !- Name
  {04d86b23-4589-4525-bac1-8e0fc70ddc8a}, !- Schedule Type Limits Name
  Through: 12/31,                         !- Field 1
  For: AllDays,                           !- Field 2
  Until: 04:00,                           !- Field 3
  0.067,                                  !- Field 4
  Until: 05:00,                           !- Field 5
  0.187,                                  !- Field 6
  Until: 06:00,                           !- Field 7
  0.394,                                  !- Field 8
  Until: 07:00,                           !- Field 9
  0.440,                                  !- Field 10
  Until: 08:00,                           !- Field 11
  0.393,                                  !- Field 12
  Until: 09:00,                           !- Field 13
  0.172,                                  !- Field 14
  Until: 15:00,                           !- Field 15
  0.119,                                  !- Field 16
  Until: 16:00,                           !- Field 17
  0.206,                                  !- Field 18
  Until: 17:00,                           !- Field 19
  0.439,                                  !- Field 20
  Until: 18:00,                           !- Field 21
  0.616,                                  !- Field 22
  Until: 19:00,                           !- Field 23
  0.829,                                  !- Field 24
  Until: 20:00,                           !- Field 25
  0.986,                                  !- Field 26
  Until: 21:00,                           !- Field 27
  1.0,                                    !- Field 28
  Until: 22:00,                           !- Field 29
  0.692,                                  !- Field 30
  Until: 23:00,                           !- Field 31
  0.384,                                  !- Field 32
  Until: 24:00,                           !- Field 33
  0.160;                                  !- Field 34

OS:ScheduleTypeLimits,
  {04d86b23-4589-4525-bac1-8e0fc70ddc8a}, !- Handle
  Fraction,                               !- Name
  0,                                      !- Lower Limit Value {BasedOnField A4}
  1,                                      !- Upper Limit Value {BasedOnField A4}
  CONTINUOUS;                             !- Numeric Type

OS:Surface,
  {5f3fe8a9-69e0-43fc-b586-5afed2f4cf60}, !- Handle
  t GFloor N2A,                           !- Name
  Floor,                                  !- Surface Type
  {5335ade7-1020-493c-8d48-68887cfab2ef}, !- Construction Name
  {f58b0bb1-15ee-488a-8be9-6a9062efdd66}, !- Space Name
  Adiabatic,                              !- Outside Boundary Condition
  ,                                       !- Outside Boundary Condition Object
  NoSun,                                  !- Sun Exposure
  NoWind,                                 !- Wind Exposure
  ,                                       !- View Factor to Ground
  ,                                       !- Number of Vertices
  11.5818, 7.6196, 0,                     !- X,Y,Z Vertex 1 {m}
  11.5818, 0, 0,                          !- X,Y,Z Vertex 2 {m}
  0, 0, 0,                                !- X,Y,Z Vertex 3 {m}
  0, 7.6196, 0;                           !- X,Y,Z Vertex 4 {m}

OS:Construction,
  {5335ade7-1020-493c-8d48-68887cfab2ef}, !- Handle
  INT-FLOOR-TOPSIDE,                      !- Name
  ,                                       !- Surface Rendering Name
  {f04ddf8b-db60-4763-9001-010e40d02867}, !- Layer 1
  {3dc6fd31-93bb-461b-8e73-69e2741b7ae7}; !- Layer 2

OS:Material,
  {f04ddf8b-db60-4763-9001-010e40d02867}, !- Handle
  MAT-CC05 4 HW CONCRETE,                 !- Name
  Rough,                                  !- Roughness
  0.1016,                                 !- Thickness {m}
  1.311,                                  !- Conductivity {W/m-K}
  2240,                                   !- Density {kg/m3}
  836.8,                                  !- Specific Heat {J/kg-K}
  0.9,                                    !- Thermal Absorptance
  0.7,                                    !- Solar Absorptance
  0.7;                                    !- Visible Absorptance

OS:Material:NoMass,
  {3dc6fd31-93bb-461b-8e73-69e2741b7ae7}, !- Handle
  CP02 CARPET PAD,                        !- Name
  VeryRough,                              !- Roughness
  0.2165,                                 !- Thermal Resistance {m2-K/W}
  0.9,                                    !- Thermal Absorptance
  0.7,                                    !- Solar Absorptance
  0.8;                                    !- Visible Absorptance

OS:Space,
  {f58b0bb1-15ee-488a-8be9-6a9062efdd66}, !- Handle
  T N2 Apartment,                         !- Name
  {7489f9c8-449f-4d7b-b4f3-d3e46d5959c5}, !- Space Type Name
  ,                                       !- Default Construction Set Name
  ,                                       !- Default Schedule Set Name
  0,                                      !- Direction of Relative North {deg}
  23.1637,                                !- X Origin {m}
  9.2959,                                 !- Y Origin {m}
  9.1435,                                 !- Z Origin {m}
  {c01b8b0f-47b7-4e6b-8d62-44a9a8892cb6}, !- Building Story Name
  {3861dc88-06df-4f04-b769-065300994c9e}, !- Thermal Zone Name
  Yes,                                    !- Part of Total Floor Area
  {8ba8d90e-2ffc-4f4e-8f2d-e3ea09eda6b0}; !- Design Specification Outdoor Air Object Name

OS:ThermostatSetpoint:DualSetpoint,
  {e4215af6-a048-465e-be92-5d47fba865ca}, !- Handle
  {25f0b2c3-6a36-4d97-b3eb-8592f4a31e52}, !- Name
  {5c97a0fb-bdf4-4931-94be-d33beddae0d1}, !- Heating Setpoint Temperature Schedule Name
  {68cb3615-8289-4be9-8140-2f2a3a5ea363}; !- Cooling Setpoint Temperature Schedule Name

OS:Space,
  {54c720e0-546a-4c98-b807-5dfcc794b451}, !- Handle
  T S1 Apartment,                         !- Name
  {7489f9c8-449f-4d7b-b4f3-d3e46d5959c5}, !- Space Type Name
  ,                                       !- Default Construction Set Name
  ,                                       !- Default Schedule Set Name
  0,                                      !- Direction of Relative North {deg}
  11.5818,                                !- X Origin {m}
  0,                                      !- Y Origin {m}
  9.1435,                                 !- Z Origin {m}
  {c01b8b0f-47b7-4e6b-8d62-44a9a8892cb6}, !- Building Story Name
  {8d4425f6-0edf-44c0-9002-520f25ad3b3c}, !- Thermal Zone Name
  Yes,                                    !- Part of Total Floor Area
  {4146db66-b106-4a27-8a38-28bf398ebe21}; !- Design Specification Outdoor Air Object Name

OS:ThermostatSetpoint:DualSetpoint,
  {93723aa5-01cb-462c-ac36-5dae03b30e68}, !- Handle
  {5c7f5fa9-9030-46c3-82e8-4eb542e62b65}, !- Name
  {5c97a0fb-bdf4-4931-94be-d33beddae0d1}, !- Heating Setpoint Temperature Schedule Name
  {68cb3615-8289-4be9-8140-2f2a3a5ea363}; !- Cooling Setpoint Temperature Schedule Name

OS:SubSurface,
  {090b8aea-44bf-452e-b70c-11e6c701821e}, !- Handle
  TWindow2,                               !- Name
  FixedWindow,                            !- Sub Surface Type
  {708a14ce-955f-49ac-8342-153741922b31}, !- Construction Name
  {a27a0f27-afc1-4516-b7b4-053461a51e0d}, !- Surface Name
  ,                                       !- Outside Boundary Condition Object
  ,                                       !- View Factor to Ground
  ,                                       !- Shading Control Name
  ,                                       !- Frame and Divider Name
  1,                                      !- Multiplier
  ,                                       !- Number of Vertices
  0, 5.1814, 2.1731,                      !- X,Y,Z Vertex 1 {m}
  0, 5.1814, 0.954,                       !- X,Y,Z Vertex 2 {m}
  0, 2.4383, 0.954,                       !- X,Y,Z Vertex 3 {m}
  0, 2.4383, 2.1731;                      !- X,Y,Z Vertex 4 {m}

OS:Construction,
  {708a14ce-955f-49ac-8342-153741922b31}, !- Handle
  Window Res Operable,                    !- Name
  ,                                       !- Surface Rendering Name
  {5630fe27-b5d1-47a6-90d6-be924e1e26ad}; !- Layer 1

OS:WindowMaterial:SimpleGlazingSystem,
  {5630fe27-b5d1-47a6-90d6-be924e1e26ad}, !- Handle
  Res Operable Assembly Window,           !- Name
  3.80426,                                !- U-Factor {W/m2-K}
  0.39;                                   !- Solar Heat Gain Coefficient

OS:Surface,
  {a27a0f27-afc1-4516-b7b4-053461a51e0d}, !- Handle
  t WWall SWA,                            !- Name
  Wall,                                   !- Surface Type
  {7e15e9a8-0fae-4d9d-98dc-0ca91eef9cca}, !- Construction Name
  {e9c97839-2f52-43bc-9db5-719f6c1e8274}, !- Space Name
  Outdoors,                               !- Outside Boundary Condition
  ,                                       !- Outside Boundary Condition Object
  SunExposed,                             !- Sun Exposure
  WindExposed,                            !- Wind Exposure
  ,                                       !- View Factor to Ground
  ,                                       !- Number of Vertices
  0, 7.6196, 3.0478,                      !- X,Y,Z Vertex 1 {m}
  0, 7.6196, 0,                           !- X,Y,Z Vertex 2 {m}
  0, 0, 0,                                !- X,Y,Z Vertex 3 {m}
  0, 0, 3.0478;                           !- X,Y,Z Vertex 4 {m}

OS:Construction,
  {7e15e9a8-0fae-4d9d-98dc-0ca91eef9cca}, !- Handle
  Steel Frame Res Ext Wall,               !- Name
  ,                                       !- Surface Rendering Name
  {926d5b6a-f09b-4e5c-a0bc-f91bd24a7778}, !- Layer 1
  {e70b45eb-f4c6-4539-8b58-46008e9edc8b}, !- Layer 2
  {a8e4180c-87a4-45c7-9109-9d36c079339f}; !- Layer 3

OS:Material,
  {926d5b6a-f09b-4e5c-a0bc-f91bd24a7778}, !- Handle
  Wood Siding,                            !- Name
  MediumSmooth,                           !- Roughness
  0.01,                                   !- Thickness {m}
  0.11,                                   !- Conductivity {W/m-K}
  544.62,                                 !- Density {kg/m3}
  1210,                                   !- Specific Heat {J/kg-K}
  0.9,                                    !- Thermal Absorptance
  0.78,                                   !- Solar Absorptance
  0.78;                                   !- Visible Absorptance

OS:Material,
  {e70b45eb-f4c6-4539-8b58-46008e9edc8b}, !- Handle
  Steel Frame Res Wall Insulation,        !- Name
  MediumRough,                            !- Roughness
  0.119161363096001,                      !- Thickness {m}
  0.049,                                  !- Conductivity {W/m-K}
  265,                                    !- Density {kg/m3}
  836.8,                                  !- Specific Heat {J/kg-K}
  0.9,                                    !- Thermal Absorptance
  0.7,                                    !- Solar Absorptance
  0.7;                                    !- Visible Absorptance

OS:Material,
  {a8e4180c-87a4-45c7-9109-9d36c079339f}, !- Handle
  1/2IN Gypsum,                           !- Name
  Smooth,                                 !- Roughness
  0.0127,                                 !- Thickness {m}
  0.16,                                   !- Conductivity {W/m-K}
  784.9,                                  !- Density {kg/m3}
  830,                                    !- Specific Heat {J/kg-K}
  0.9,                                    !- Thermal Absorptance
  0.92,                                   !- Solar Absorptance
  0.92;                                   !- Visible Absorptance

OS:Space,
  {e9c97839-2f52-43bc-9db5-719f6c1e8274}, !- Handle
  T SW Apartment,                         !- Name
  {7489f9c8-449f-4d7b-b4f3-d3e46d5959c5}, !- Space Type Name
  ,                                       !- Default Construction Set Name
  ,                                       !- Default Schedule Set Name
  0,                                      !- Direction of Relative North {deg}
  0,                                      !- X Origin {m}
  0,                                      !- Y Origin {m}
  9.1435,                                 !- Z Origin {m}
  {c01b8b0f-47b7-4e6b-8d62-44a9a8892cb6}, !- Building Story Name
  {8d4425f6-0edf-44c0-9002-520f25ad3b3c}, !- Thermal Zone Name
  Yes,                                    !- Part of Total Floor Area
  {24bd1249-e5e5-4190-b9b7-b2576f7dd9af}; !- Design Specification Outdoor Air Object Name

OS:ThermostatSetpoint:DualSetpoint,
  {10265305-f598-4e07-a636-bc4c23015563}, !- Handle
  {cf0f3547-04f0-4732-90ed-51e4064f4c11}, !- Name
  {5c97a0fb-bdf4-4931-94be-d33beddae0d1}, !- Heating Setpoint Temperature Schedule Name
  {68cb3615-8289-4be9-8140-2f2a3a5ea363}; !- Cooling Setpoint Temperature Schedule Name

OS:Space,
  {e44ef445-621a-4ed2-89cc-ce179d791b2b}, !- Handle
  T Corridor,                             !- Name
  {b578f89d-a00f-406f-a4d7-312fdab212f3}, !- Space Type Name
  ,                                       !- Default Construction Set Name
  ,                                       !- Default Schedule Set Name
  0,                                      !- Direction of Relative North {deg}
  0,                                      !- X Origin {m}
  7.6196,                                 !- Y Origin {m}
  9.1435,                                 !- Z Origin {m}
  {c01b8b0f-47b7-4e6b-8d62-44a9a8892cb6}, !- Building Story Name
  {1f32772d-5a30-4c32-8925-a6fc830aba40}, !- Thermal Zone Name
  Yes,                                    !- Part of Total Floor Area
  {f5671c9d-d339-469e-a5f2-7182ecc7df68}; !- Design Specification Outdoor Air Object Name

OS:ThermostatSetpoint:DualSetpoint,
  {df348b6f-c1b8-426d-a351-fe002b14d410}, !- Handle
  {f275497b-1a8b-45f0-91b5-0dc6e75b1614}, !- Name
  {906ba40f-0387-4278-9cdb-eb00c7edc962}, !- Heating Setpoint Temperature Schedule Name
  {4b2b374c-c907-42ad-baaa-979a633c5c0b}; !- Cooling Setpoint Temperature Schedule Name

OS:Schedule:Compact,
  {906ba40f-0387-4278-9cdb-eb00c7edc962}, !- Handle
  UnitHeater_HtgSP_Sch,                   !- Name
  {a72c2838-16d7-49ee-91e4-b9052cde1460}, !- Schedule Type Limits Name
  THROUGH: 12/31,                         !- Field 1
  FOR:AllDays,                            !- Field 2
  UNTIL: 24:00,                           !- Field 3
  15.6;                                   !- Field 4

OS:Schedule:Compact,
  {4b2b374c-c907-42ad-baaa-979a633c5c0b}, !- Handle
  UnitHeater_ClgSP_Sch,                   !- Name
  {a72c2838-16d7-49ee-91e4-b9052cde1460}, !- Schedule Type Limits Name
  THROUGH: 12/31,                         !- Field 1
  FOR:AllDays,                            !- Field 2
  UNTIL: 24:00,                           !- Field 3
  40;                                     !- Field 4

OS:SubSurface,
  {e8ca16b1-f43a-4381-93d3-48a33d1597ee}, !- Handle
  GWindow6,                               !- Name
  FixedWindow,                            !- Sub Surface Type
  {708a14ce-955f-49ac-8342-153741922b31}, !- Construction Name
  {6ce91fb3-4473-48ec-ad26-c63b3c1fbdfe}, !- Surface Name
  ,                                       !- Outside Boundary Condition Object
  ,                                       !- View Factor to Ground
  ,                                       !- Shading Control Name
  ,                                       !- Frame and Divider Name
  1,                                      !- Multiplier
  ,                                       !- Number of Vertices
  0, 5.1814, 2.1731,                      !- X,Y,Z Vertex 1 {m}
  0, 5.1814, 0.954,                       !- X,Y,Z Vertex 2 {m}
  0, 2.4383, 0.954,                       !- X,Y,Z Vertex 3 {m}
  0, 2.4383, 2.1731;                      !- X,Y,Z Vertex 4 {m}

OS:Surface,
  {6ce91fb3-4473-48ec-ad26-c63b3c1fbdfe}, !- Handle
  g WWall NWA,                            !- Name
  Wall,                                   !- Surface Type
  {7e15e9a8-0fae-4d9d-98dc-0ca91eef9cca}, !- Construction Name
  {122cf15a-6a32-47db-a1fd-3bbe71d36950}, !- Space Name
  Outdoors,                               !- Outside Boundary Condition
  ,                                       !- Outside Boundary Condition Object
  SunExposed,                             !- Sun Exposure
  WindExposed,                            !- Wind Exposure
  ,                                       !- View Factor to Ground
  ,                                       !- Number of Vertices
  0, 7.6196, 3.0478,                      !- X,Y,Z Vertex 1 {m}
  0, 7.6196, 0,                           !- X,Y,Z Vertex 2 {m}
  0, 0, 0,                                !- X,Y,Z Vertex 3 {m}
  0, 0, 3.0478;                           !- X,Y,Z Vertex 4 {m}

OS:Space,
  {122cf15a-6a32-47db-a1fd-3bbe71d36950}, !- Handle
  G NW Apartment,                         !- Name
  {7489f9c8-449f-4d7b-b4f3-d3e46d5959c5}, !- Space Type Name
  ,                                       !- Default Construction Set Name
  ,                                       !- Default Schedule Set Name
  0,                                      !- Direction of Relative North {deg}
  0,                                      !- X Origin {m}
  9.2959,                                 !- Y Origin {m}
  0,                                      !- Z Origin {m}
  {6681dad0-db9b-43f7-a76e-a1a6d35e0806}, !- Building Story Name
  {1e752b0e-3149-48e2-b58a-5977a801a85f}, !- Thermal Zone Name
  Yes,                                    !- Part of Total Floor Area
  {e5893fcb-b589-444e-92b4-0c40c7a586f8}; !- Design Specification Outdoor Air Object Name

OS:ThermostatSetpoint:DualSetpoint,
  {e2cfc947-b2ae-435f-8ea2-cbb09a2e50b7}, !- Handle
  {e85143f0-b1e0-44fe-b4bc-f48ce9a0e3ca}, !- Name
  {5c97a0fb-bdf4-4931-94be-d33beddae0d1}, !- Heating Setpoint Temperature Schedule Name
  {68cb3615-8289-4be9-8140-2f2a3a5ea363}; !- Cooling Setpoint Temperature Schedule Name

OS:Surface,
  {c4d4ae13-b99d-454d-93b2-58a6dd4b020f}, !- Handle
  t EWall C,                              !- Name
  Wall,                                   !- Surface Type
  {7e15e9a8-0fae-4d9d-98dc-0ca91eef9cca}, !- Construction Name
  {e44ef445-621a-4ed2-89cc-ce179d791b2b}, !- Space Name
  Outdoors,                               !- Outside Boundary Condition
  ,                                       !- Outside Boundary Condition Object
  SunExposed,                             !- Sun Exposure
  WindExposed,                            !- Wind Exposure
  ,                                       !- View Factor to Ground
  ,                                       !- Number of Vertices
  46.3273, 0, 3.0478,                     !- X,Y,Z Vertex 1 {m}
  46.3273, 0, 0,                          !- X,Y,Z Vertex 2 {m}
  46.3273, 1.6763, 0,                     !- X,Y,Z Vertex 3 {m}
  46.3273, 1.6763, 3.0478;                !- X,Y,Z Vertex 4 {m}

OS:Material,
  {494f6b71-39e5-41db-adb1-531bcc59b8de}, !- Handle
  Metal Siding,                           !- Name
  Smooth,                                 !- Roughness
  0.0015,                                 !- Thickness {m}
  44.96,                                  !- Conductivity {W/m-K}
  7688.86,                                !- Density {kg/m3}
  410,                                    !- Specific Heat {J/kg-K}
  0.9,                                    !- Thermal Absorptance
  0.2,                                    !- Solar Absorptance
  0.2;                                    !- Visible Absorptance

OS:ElectricEquipment:Definition,
  {5039a7ac-374c-4578-8ab0-8e8b52f137f8}, !- Handle
  T S2 Apartment_PlugMisc_Equip Definition, !- Name
  Watts/Area,                             !- Design Level Calculation Method
  ,                                       !- Design Level {W}
  5.38,                                   !- Watts per Space Floor Area {W/m2}
  ,                                       !- Watts per Person {W/person}
  0,                                      !- Fraction Latent
  0.5,                                    !- Fraction Radiant
  0;                                      !- Fraction Lost

OS:ElectricEquipment,
  {1365551c-db1e-455c-a809-48c27b9511dc}, !- Handle
  T S2 Apartment_PlugMisc_Equip,          !- Name
  {5039a7ac-374c-4578-8ab0-8e8b52f137f8}, !- Electric Equipment Definition Name
  {37d8fefa-0e63-4fdc-9e2a-b19e3022f21a}, !- Space or SpaceType Name
  {f866b7b8-5834-4009-81ed-81f85a6858a3}, !- Schedule Name
  ,                                       !- Multiplier
  General;                                !- End-Use Subcategory

OS:Space,
  {37d8fefa-0e63-4fdc-9e2a-b19e3022f21a}, !- Handle
  T S2 Apartment,                         !- Name
  {7489f9c8-449f-4d7b-b4f3-d3e46d5959c5}, !- Space Type Name
  ,                                       !- Default Construction Set Name
  ,                                       !- Default Schedule Set Name
  0,                                      !- Direction of Relative North {deg}
  23.1637,                                !- X Origin {m}
  0,                                      !- Y Origin {m}
  9.1435,                                 !- Z Origin {m}
  {c01b8b0f-47b7-4e6b-8d62-44a9a8892cb6}, !- Building Story Name
  {8d4425f6-0edf-44c0-9002-520f25ad3b3c}, !- Thermal Zone Name
  Yes,                                    !- Part of Total Floor Area
  {9afe21b2-ba53-4b98-907d-25c7d4e3fce9}; !- Design Specification Outdoor Air Object Name

OS:ThermostatSetpoint:DualSetpoint,
  {01c71258-3109-4a70-b322-3a8aba20c78c}, !- Handle
  {0e6a0839-6cba-4721-a659-ca5441c2918d}, !- Name
  {5c97a0fb-bdf4-4931-94be-d33beddae0d1}, !- Heating Setpoint Temperature Schedule Name
  {68cb3615-8289-4be9-8140-2f2a3a5ea363}; !- Cooling Setpoint Temperature Schedule Name

OS:Schedule:Compact,
  {f866b7b8-5834-4009-81ed-81f85a6858a3}, !- Handle
  APT_EQP_SCH,                            !- Name
  {04d86b23-4589-4525-bac1-8e0fc70ddc8a}, !- Schedule Type Limits Name
  Through: 12/31,                         !- Field 1
  For: AllDays,                           !- Field 2
  Until: 1:00,                            !- Field 3
  0.45,                                   !- Field 4
  Until: 2:00,                            !- Field 5
  0.41,                                   !- Field 6
  Until: 3:00,                            !- Field 7
  0.39,                                   !- Field 8
  Until: 5:00,                            !- Field 9
  0.38,                                   !- Field 10
  Until: 6:00,                            !- Field 11
  0.43,                                   !- Field 12
  Until: 7:00,                            !- Field 13
  0.54,                                   !- Field 14
  Until: 8:00,                            !- Field 15
  0.65,                                   !- Field 16
  Until: 9:00,                            !- Field 17
  0.66,                                   !- Field 18
  Until: 10:00,                           !- Field 19
  0.67,                                   !- Field 20
  Until: 11:00,                           !- Field 21
  0.69,                                   !- Field 22
  Until: 12:00,                           !- Field 23
  0.70,                                   !- Field 24