
OS:Version,
  {e87f9a04-7a0c-43f6-a210-52dc6d831a6e}, !- Handle
  1.8.5;                                  !- Version Identifier

OS:Site,
  {2a4e4e09-cea1-4b22-93a3-6ae39da15ae6}, !- Handle
  USA IL-CHICAGO-OHARE,                   !- Name
  41.77,                                  !- Latitude {deg}
  -87.75,                                 !- Longitude {deg}
  -6,                                     !- Time Zone {hr}
  190,                                    !- Elevation {m}
  City;                                   !- Terrain

OS:SimulationControl,
  {378f522a-0310-4dd0-93c9-aa077ef1b107}, !- Handle
  Yes,                                    !- Do Zone Sizing Calculation
  Yes,                                    !- Do System Sizing Calculation
  Yes,                                    !- Do Plant Sizing Calculation
  No,                                     !- Run Simulation for Sizing Periods
  Yes,                                    !- Run Simulation for Weather File Run Periods
  0.04,                                   !- Loads Convergence Tolerance Value
  0.2,                                    !- Temperature Convergence Tolerance Value {deltaC}
  FullInteriorAndExterior,                !- Solar Distribution
  25,                                     !- Maximum Number of Warmup Days
  6;                                      !- Minimum Number of Warmup Days

OS:Surface,
  {5ad95323-bd27-489c-b9be-adf32df955ca}, !- Handle
  g Ceilin N1A,                           !- Name
  RoofCeiling,                            !- Surface Type
  {e2a5443e-7791-4002-83eb-7ed66fafcc04}, !- Construction Name
  {a3b4f43b-83e5-48a4-a14f-e29ac069b770}, !- Space Name
  Adiabatic,                              !- Outside Boundary Condition
  ,                                       !- Outside Boundary Condition Object
  NoSun,                                  !- Sun Exposure
  NoWind,                                 !- Wind Exposure
  ,                                       !- View Factor to Ground
  ,                                       !- Number of Vertices
  11.5818, 0, 3.0478,                     !- X,Y,Z Vertex 1 {m}
  11.5818, 7.6196, 3.0478,                !- X,Y,Z Vertex 2 {m}
  0, 7.6196, 3.0478,                      !- X,Y,Z Vertex 3 {m}
  0, 0, 3.0478;                           !- X,Y,Z Vertex 4 {m}

OS:Construction,
  {e2a5443e-7791-4002-83eb-7ed66fafcc04}, !- Handle
  INT-FLOOR-UNDERSIDE,                    !- Name
  ,                                       !- Surface Rendering Name
  {affea544-7c49-41d6-b24d-1e6b60df7a48}, !- Layer 1
  {ef6ce5de-7cb9-404f-951c-afce81bf1b25}; !- Layer 2

OS:Material:NoMass,
  {affea544-7c49-41d6-b24d-1e6b60df7a48}, !- Handle
  CP02 CARPET PAD,                        !- Name
  VeryRough,                              !- Roughness
  0.2165,                                 !- Thermal Resistance {m2-K/W}
  0.9,                                    !- Thermal Absorptance
  0.7,                                    !- Solar Absorptance
  0.8;                                    !- Visible Absorptance

OS:Material,
  {ef6ce5de-7cb9-404f-951c-afce81bf1b25}, !- Handle
  MAT-CC05 4 HW CONCRETE,                 !- Name
  Rough,                                  !- Roughness
  0.1016,                                 !- Thickness {m}
  1.311,                                  !- Conductivity {W/m-K}
  2240,                                   !- Density {kg/m3}
  836.8,                                  !- Specific Heat {J/kg-K}
  0.9,                                    !- Thermal Absorptance
  0.7,                                    !- Solar Absorptance
  0.7;                                    !- Visible Absorptance

OS:Space,
  {a3b4f43b-83e5-48a4-a14f-e29ac069b770}, !- Handle
  G N1 Apartment,                         !- Name
  {7b15c7a9-f9a6-48cc-81af-251ae324ec3b}, !- Space Type Name
  ,                                       !- Default Construction Set Name
  ,                                       !- Default Schedule Set Name
  0,                                      !- Direction of Relative North {deg}
  11.5818,                                !- X Origin {m}
  9.2959,                                 !- Y Origin {m}
  0,                                      !- Z Origin {m}
  {bad1236d-636d-4444-8cf8-dfe474f4602f}, !- Building Story Name
  {ea823c59-c20c-4245-8ef4-691582d138c3}, !- Thermal Zone Name
  Yes,                                    !- Part of Total Floor Area
  {cfc8242a-571f-426e-b9f2-4e6563d6f5db}; !- Design Specification Outdoor Air Object Name

OS:ThermostatSetpoint:DualSetpoint,
  {eedb41b2-de34-4458-8ce8-a0c9b0530f96}, !- Handle
  {51177d01-240b-4787-911e-0a292138f484}, !- Name
  {f1e30885-2216-4d44-9647-ad2341863391}, !- Heating Setpoint Temperature Schedule Name
  {29901eaa-9de5-49e7-a518-7aa5bc082f04}; !- Cooling Setpoint Temperature Schedule Name

OS:Schedule:Compact,
  {f1e30885-2216-4d44-9647-ad2341863391}, !- Handle
  APT_HTGSETP_SCH,                        !- Name
  {c05e7f05-f4d8-4557-a54e-d6b5dcfe492e}, !- Schedule Type Limits Name
  THROUGH: 12/31,                         !- Field 1
  FOR:AllDays,                            !- Field 2
  UNTIL: 24:00,                           !- Field 3
  21.1;                                   !- Field 4

OS:ScheduleTypeLimits,
  {c05e7f05-f4d8-4557-a54e-d6b5dcfe492e}, !- Handle
  Temperature,                            !- Name
  -60,                                    !- Lower Limit Value {BasedOnField A4}
  200,                                    !- Upper Limit Value {BasedOnField A4}
  CONTINUOUS,                             !- Numeric Type
  Temperature;                            !- Unit Type

OS:Schedule:Compact,
  {29901eaa-9de5-49e7-a518-7aa5bc082f04}, !- Handle
  APT_CLGSETP_SCH,                        !- Name
  {c05e7f05-f4d8-4557-a54e-d6b5dcfe492e}, !- Schedule Type Limits Name
  THROUGH: 12/31,                         !- Field 1
  FOR:AllDays,                            !- Field 2
  UNTIL: 24:00,                           !- Field 3
  23.9;                                   !- Field 4

OS:Material,
  {d95cc301-9b5a-416a-ae84-078c6e125a31}, !- Handle
  Wood Siding,                            !- Name
  MediumSmooth,                           !- Roughness
  0.01,                                   !- Thickness {m}
  0.11,                                   !- Conductivity {W/m-K}
  544.62,                                 !- Density {kg/m3}
  1210,                                   !- Specific Heat {J/kg-K}
  0.9,                                    !- Thermal Absorptance
  0.78,                                   !- Solar Absorptance
  0.78;                                   !- Visible Absorptance

OS:SpaceInfiltration:DesignFlowRate,
  {73dc4be1-7d43-449e-aae6-29a305376013}, !- Handle
  G S2 Apartment_Infiltration,            !- Name
  {fc371299-6d73-4c2b-9a5f-861215e0d45f}, !- Space or SpaceType Name
  {05f86c9c-61c7-43e6-87fa-dbc88fa6a946}, !- Schedule Name
  Flow/ExteriorArea,                      !- Design Flow Rate Calculation Method
  ,                                       !- Design Flow Rate {m3/s}
  ,                                       !- Flow per Space Floor Area {m3/s-m2}
  0.000302,                               !- Flow per Exterior Surface Area {m3/s-m2}
  ,                                       !- Air Changes per Hour {1/hr}
  1,                                      !- Constant Term Coefficient
  0,                                      !- Temperature Term Coefficient
  0,                                      !- Velocity Term Coefficient
  0;                                      !- Velocity Squared Term Coefficient

OS:Space,
  {fc371299-6d73-4c2b-9a5f-861215e0d45f}, !- Handle
  G S2 Apartment,                         !- Name
  {7b15c7a9-f9a6-48cc-81af-251ae324ec3b}, !- Space Type Name
  ,                                       !- Default Construction Set Name
  ,                                       !- Default Schedule Set Name
  0,                                      !- Direction of Relative North {deg}
  23.1637,                                !- X Origin {m}
  0,                                      !- Y Origin {m}
  0,                                      !- Z Origin {m}
  {bad1236d-636d-4444-8cf8-dfe474f4602f}, !- Building Story Name
  {cf848518-41a1-4d3a-b024-9feb6bf76e21}, !- Thermal Zone Name
  Yes,                                    !- Part of Total Floor Area
  {b101722f-3787-4662-abba-2fc6964deb71}; !- Design Specification Outdoor Air Object Name

OS:ThermostatSetpoint:DualSetpoint,
  {52ff876a-899e-46e9-a33b-e7dc973b5e21}, !- Handle
  {e4d97471-fc57-49db-aa1d-bea8f299ad69}, !- Name
  {f1e30885-2216-4d44-9647-ad2341863391}, !- Heating Setpoint Temperature Schedule Name
  {29901eaa-9de5-49e7-a518-7aa5bc082f04}; !- Cooling Setpoint Temperature Schedule Name

OS:Schedule:Compact,
  {05f86c9c-61c7-43e6-87fa-dbc88fa6a946}, !- Handle
  INFIL_SCH,                              !- Name
  {00330cbb-9a5e-4e7b-8360-1e568cd95f76}, !- Schedule Type Limits Name
  Through: 12/31,                         !- Field 1
  For: AllDays,                           !- Field 2
  Until: 24:00,                           !- Field 3
  1;                                      !- Field 4

OS:ScheduleTypeLimits,
  {00330cbb-9a5e-4e7b-8360-1e568cd95f76}, !- Handle
  Fraction,                               !- Name
  0,                                      !- Lower Limit Value {BasedOnField A4}
  1,                                      !- Upper Limit Value {BasedOnField A4}
  CONTINUOUS;                             !- Numeric Type

OS:Surface,
  {71c14729-9fac-4ea9-8cc0-4b727f81a4ee}, !- Handle
  t Roof S1A,                             !- Name
  RoofCeiling,                            !- Surface Type
  {3e880798-fec1-49e0-ac17-338b7fd68a8c}, !- Construction Name
  {43a54ef4-2290-43c5-acbd-e264c2d3f506}, !- Space Name
  Outdoors,                               !- Outside Boundary Condition
  ,                                       !- Outside Boundary Condition Object
  SunExposed,                             !- Sun Exposure
  WindExposed,                            !- Wind Exposure
  ,                                       !- View Factor to Ground
  ,                                       !- Number of Vertices
  11.5818, 0, 3.0478,                     !- X,Y,Z Vertex 1 {m}
  11.5818, 7.6196, 3.0478,                !- X,Y,Z Vertex 2 {m}
  0, 7.6196, 3.0478,                      !- X,Y,Z Vertex 3 {m}
  0, 0, 3.0478;                           !- X,Y,Z Vertex 4 {m}

OS:Construction,
  {3e880798-fec1-49e0-ac17-338b7fd68a8c}, !- Handle
  IEAD Res Roof,                          !- Name
  ,                                       !- Surface Rendering Name
  {c172d091-d0ac-422e-be72-bbac8fa80d0d}, !- Layer 1
  {a1cbe1f0-9612-4c06-a263-96f6a88559e6}, !- Layer 2
  {34329cca-987d-4f27-8197-5f709d9b4744}; !- Layer 3

OS:Material,
  {c172d091-d0ac-422e-be72-bbac8fa80d0d}, !- Handle
  Roof Membrane,                          !- Name
  VeryRough,                              !- Roughness
  0.0095,                                 !- Thickness {m}
  0.16,                                   !- Conductivity {W/m-K}
  1121.29,                                !- Density {kg/m3}
  1460,                                   !- Specific Heat {J/kg-K}
  0.9,                                    !- Thermal Absorptance
  0.7,                                    !- Solar Absorptance
  0.7;                                    !- Visible Absorptance

OS:Material,
  {a1cbe1f0-9612-4c06-a263-96f6a88559e6}, !- Handle
  IEAD Res Roof Insulation,               !- Name
  MediumRough,                            !- Roughness
  0.127338688569477,                      !- Thickness {m}
  0.049,                                  !- Conductivity {W/m-K}
  265,                                    !- Density {kg/m3}
  836.8,                                  !- Specific Heat {J/kg-K}
  0.9,                                    !- Thermal Absorptance
  0.7,                                    !- Solar Absorptance
  0.7;                                    !- Visible Absorptance

OS:Material,
  {34329cca-987d-4f27-8197-5f709d9b4744}, !- Handle
  Metal Decking,                          !- Name
  MediumSmooth,                           !- Roughness
  0.0015,                                 !- Thickness {m}
  45.006,                                 !- Conductivity {W/m-K}
  7680,                                   !- Density {kg/m3}
  418.4,                                  !- Specific Heat {J/kg-K}
  0.9,                                    !- Thermal Absorptance
  0.7,                                    !- Solar Absorptance
  0.3;                                    !- Visible Absorptance

OS:Space,
  {43a54ef4-2290-43c5-acbd-e264c2d3f506}, !- Handle
  T S1 Apartment,                         !- Name
  {7b15c7a9-f9a6-48cc-81af-251ae324ec3b}, !- Space Type Name
  ,                                       !- Default Construction Set Name
  ,                                       !- Default Schedule Set Name
  0,                                      !- Direction of Relative North {deg}
  11.5818,                                !- X Origin {m}
  0,                                      !- Y Origin {m}
  9.1435,                                 !- Z Origin {m}
  {104c91b3-7e37-457c-b0e4-4f6767af1106}, !- Building Story Name
  {f14abff2-34b0-492f-93cb-7b9c22aef9fd}, !- Thermal Zone Name
  Yes,                                    !- Part of Total Floor Area
  {80b2c7f7-e5c0-4160-ae55-99bd976e8982}; !- Design Specification Outdoor Air Object Name

OS:ThermostatSetpoint:DualSetpoint,
  {777e3fd7-6f22-43e1-a301-318f59946a52}, !- Handle
  {5c670457-5734-427a-a2b7-8d22204ed3f0}, !- Name
  {f1e30885-2216-4d44-9647-ad2341863391}, !- Heating Setpoint Temperature Schedule Name
  {29901eaa-9de5-49e7-a518-7aa5bc082f04}; !- Cooling Setpoint Temperature Schedule Name

OS:SpaceInfiltration:DesignFlowRate,
  {fbd2936f-f8b5-437d-9c01-cb650e4edbbf}, !- Handle
  T N2 Apartment_Infiltration,            !- Name
  {487a0845-7335-44ab-9a64-c872a4d7499c}, !- Space or SpaceType Name
  {05f86c9c-61c7-43e6-87fa-dbc88fa6a946}, !- Schedule Name
  Flow/ExteriorArea,                      !- Design Flow Rate Calculation Method
  ,                                       !- Design Flow Rate {m3/s}
  ,                                       !- Flow per Space Floor Area {m3/s-m2}
  0.000302,                               !- Flow per Exterior Surface Area {m3/s-m2}
  ,                                       !- Air Changes per Hour {1/hr}
  1,                                      !- Constant Term Coefficient
  0,                                      !- Temperature Term Coefficient
  0,                                      !- Velocity Term Coefficient
  0;                                      !- Velocity Squared Term Coefficient

OS:Space,
  {487a0845-7335-44ab-9a64-c872a4d7499c}, !- Handle
  T N2 Apartment,                         !- Name
  {7b15c7a9-f9a6-48cc-81af-251ae324ec3b}, !- Space Type Name
  ,                                       !- Default Construction Set Name
  ,                                       !- Default Schedule Set Name
  0,                                      !- Direction of Relative North {deg}
  23.1637,                                !- X Origin {m}
  9.2959,                                 !- Y Origin {m}
  9.1435,                                 !- Z Origin {m}
  {104c91b3-7e37-457c-b0e4-4f6767af1106}, !- Building Story Name
  {63d36ac4-13f5-4105-9f01-5a25c2c7c9bb}, !- Thermal Zone Name
  Yes,                                    !- Part of Total Floor Area
  {775c472a-6368-4ad6-8e24-e129aebacef1}; !- Design Specification Outdoor Air Object Name

OS:ThermostatSetpoint:DualSetpoint,
  {04203243-1627-4abd-a908-e31aeb1467fe}, !- Handle
  {cfd763c6-f732-4dfa-97d7-7c4d466fcfde}, !- Name
  {f1e30885-2216-4d44-9647-ad2341863391}, !- Heating Setpoint Temperature Schedule Name
  {29901eaa-9de5-49e7-a518-7aa5bc082f04}; !- Cooling Setpoint Temperature Schedule Name

OS:SubSurface,
  {4f3102a7-9a62-4d17-b894-301989ff61b0}, !- Handle
  TWindow9,                               !- Name
  FixedWindow,                            !- Sub Surface Type
  {d0c82c0d-d844-4e1e-aa87-1bd628266ab9}, !- Construction Name
  {7a5f6ea5-838f-4d56-9604-498ef1794c4b}, !- Surface Name
  ,                                       !- Outside Boundary Condition Object
  ,                                       !- View Factor to Ground
  ,                                       !- Shading Control Name
  ,                                       !- Frame and Divider Name
  1,                                      !- Multiplier
  ,                                       !- Number of Vertices
  7.924, 7.6196, 2.1731,                  !- X,Y,Z Vertex 1 {m}
  7.924, 7.6196, 0.954,                   !- X,Y,Z Vertex 2 {m}
  3.657, 7.6196, 0.954,                   !- X,Y,Z Vertex 3 {m}
  3.657, 7.6196, 2.1731;                  !- X,Y,Z Vertex 4 {m}

OS:Construction,
  {d0c82c0d-d844-4e1e-aa87-1bd628266ab9}, !- Handle
  Window Res Operable,                    !- Name
  ,                                       !- Surface Rendering Name
  {1f210b86-8388-4a0a-bb92-5eba147d35f2}; !- Layer 1

OS:WindowMaterial:SimpleGlazingSystem,
  {1f210b86-8388-4a0a-bb92-5eba147d35f2}, !- Handle
  Res Operable Assembly Window,           !- Name
  3.80426,                                !- U-Factor {W/m2-K}
  0.39;                                   !- Solar Heat Gain Coefficient

OS:Surface,
  {7a5f6ea5-838f-4d56-9604-498ef1794c4b}, !- Handle
  t NWall N1A,                            !- Name
  Wall,                                   !- Surface Type
  {f6a41f54-a221-4721-8361-af48d95c3f54}, !- Construction Name
  {9df95f7b-f01b-4d3c-b109-fd2097104401}, !- Space Name
  Outdoors,                               !- Outside Boundary Condition
  ,                                       !- Outside Boundary Condition Object
  SunExposed,                             !- Sun Exposure
  WindExposed,                            !- Wind Exposure
  ,                                       !- View Factor to Ground
  ,                                       !- Number of Vertices
  11.5818, 7.6196, 3.0478,                !- X,Y,Z Vertex 1 {m}
  11.5818, 7.6196, 0,                     !- X,Y,Z Vertex 2 {m}
  0, 7.6196, 0,                           !- X,Y,Z Vertex 3 {m}
  0, 7.6196, 3.0478;                      !- X,Y,Z Vertex 4 {m}

OS:Construction,
  {f6a41f54-a221-4721-8361-af48d95c3f54}, !- Handle
  Steel Frame Res Ext Wall,               !- Name
  ,                                       !- Surface Rendering Name
  {d95cc301-9b5a-416a-ae84-078c6e125a31}, !- Layer 1
  {84541b7f-e48c-4ffe-b153-a47d373eff05}, !- Layer 2
  {66753b00-151f-47fe-b8ec-7624fb3244cc}; !- Layer 3

OS:Material,
  {84541b7f-e48c-4ffe-b153-a47d373eff05}, !- Handle
  Steel Frame Res Wall Insulation,        !- Name
  MediumRough,                            !- Roughness
  0.119161363096001,                      !- Thickness {m}
  0.049,                                  !- Conductivity {W/m-K}
  265,                                    !- Density {kg/m3}
  836.8,                                  !- Specific Heat {J/kg-K}
  0.9,                                    !- Thermal Absorptance
  0.7,                                    !- Solar Absorptance
  0.7;                                    !- Visible Absorptance

OS:Material,
  {66753b00-151f-47fe-b8ec-7624fb3244cc}, !- Handle
  1/2IN Gypsum,                           !- Name
  Smooth,                                 !- Roughness
  0.0127,                                 !- Thickness {m}
  0.16,                                   !- Conductivity {W/m-K}
  784.9,                                  !- Density {kg/m3}
  830,                                    !- Specific Heat {J/kg-K}
  0.9,                                    !- Thermal Absorptance
  0.92,                                   !- Solar Absorptance
  0.92;                                   !- Visible Absorptance

OS:Space,
  {9df95f7b-f01b-4d3c-b109-fd2097104401}, !- Handle
  T N1 Apartment,                         !- Name
  {7b15c7a9-f9a6-48cc-81af-251ae324ec3b}, !- Space Type Name
  ,                                       !- Default Construction Set Name
  ,                                       !- Default Schedule Set Name
  0,                                      !- Direction of Relative North {deg}
  11.5818,                                !- X Origin {m}
  9.2959,                                 !- Y Origin {m}
  9.1435,                                 !- Z Origin {m}
  {104c91b3-7e37-457c-b0e4-4f6767af1106}, !- Building Story Name
  {63d36ac4-13f5-4105-9f01-5a25c2c7c9bb}, !- Thermal Zone Name
  Yes,                                    !- Part of Total Floor Area
  {0d998f96-0624-4d0c-9089-783f3dbf7142}; !- Design Specification Outdoor Air Object Name

OS:ThermostatSetpoint:DualSetpoint,
  {d0da28bc-1e7a-49e7-ad55-e4d10df1484b}, !- Handle
  {cd664b86-4d79-4f3b-a487-01821045ad12}, !- Name
  {f1e30885-2216-4d44-9647-ad2341863391}, !- Heating Setpoint Temperature Schedule Name
  {29901eaa-9de5-49e7-a518-7aa5bc082f04}; !- Cooling Setpoint Temperature Schedule Name

OS:Surface,
  {8cc382e5-b3a1-431b-8ea1-50ce2bcb8e51}, !- Handle
  t GFloor NEA,                           !- Name
  Floor,                                  !- Surface Type
  {6c659faa-93bc-4222-97fd-95b43f72a911}, !- Construction Name
  {bd5ecb84-8d99-42a9-808a-bd9c17fb3dec}, !- Space Name
  Adiabatic,                              !- Outside Boundary Condition
  ,                                       !- Outside Boundary Condition Object
  NoSun,                                  !- Sun Exposure
  NoWind,                                 !- Wind Exposure
  ,                                       !- View Factor to Ground
  ,                                       !- Number of Vertices
  11.5818, 7.6196, 0,                     !- X,Y,Z Vertex 1 {m}
  11.5818, 0, 0,                          !- X,Y,Z Vertex 2 {m}
  0, 0, 0,                                !- X,Y,Z Vertex 3 {m}
  0, 7.6196, 0;                           !- X,Y,Z Vertex 4 {m}

OS:Construction,
  {6c659faa-93bc-4222-97fd-95b43f72a911}, !- Handle
  INT-FLOOR-TOPSIDE,                      !- Name
  ,                                       !- Surface Rendering Name
  {ef6ce5de-7cb9-404f-951c-afce81bf1b25}, !- Layer 1
  {affea544-7c49-41d6-b24d-1e6b60df7a48}; !- Layer 2

OS:Space,
  {bd5ecb84-8d99-42a9-808a-bd9c17fb3dec}, !- Handle
  T NE Apartment,                         !- Name
  {7b15c7a9-f9a6-48cc-81af-251ae324ec3b}, !- Space Type Name
  ,                                       !- Default Construction Set Name
  ,                                       !- Default Schedule Set Name
  0,                                      !- Direction of Relative North {deg}
  34.7455,                                !- X Origin {m}
  9.2959,                                 !- Y Origin {m}
  9.1435,                                 !- Z Origin {m}
  {104c91b3-7e37-457c-b0e4-4f6767af1106}, !- Building Story Name
  {63d36ac4-13f5-4105-9f01-5a25c2c7c9bb}, !- Thermal Zone Name
  Yes,                                    !- Part of Total Floor Area
  {7161ae6e-9be3-410d-9ce1-3a3f34e73d17}; !- Design Specification Outdoor Air Object Name

OS:ThermostatSetpoint:DualSetpoint,
  {e5958edd-cd17-4202-ae3e-e69cd2272d36}, !- Handle
  {fd91d457-eeeb-43e3-95fb-2bc0d8e5cfc1}, !- Name
  {f1e30885-2216-4d44-9647-ad2341863391}, !- Heating Setpoint Temperature Schedule Name
  {29901eaa-9de5-49e7-a518-7aa5bc082f04}; !- Cooling Setpoint Temperature Schedule Name

OS:DesignSpecification:OutdoorAir,
  {b101722f-3787-4662-abba-2fc6964deb71}, !- Handle
  SZ DSOA G S2 Apartment,                 !- Name
  ,                                       !- Outdoor Air Method
  ,                                       !- Outdoor Air Flow per Person {m3/s-person}
  ,                                       !- Outdoor Air Flow per Floor Area {m3/s-m2}
  0.04248,                                !- Outdoor Air Flow Rate {m3/s}
  ,                                       !- Outdoor Air Flow Air Changes per Hour {1/hr}
  ;                                       !- Outdoor Air Flow Rate Fraction Schedule Name

OS:Surface,
  {b07c64c0-4da7-4947-aa23-7c97184f805c}, !- Handle
  m WWall S1A,                            !- Name
  Wall,                                   !- Surface Type
  {d9ad7dea-23f7-437c-8c23-8a7728715fd6}, !- Construction Name
  {76510f42-51b6-42a9-86a5-7d6f393fb707}, !- Space Name
  Surface,                                !- Outside Boundary Condition
  {c7b350c5-a2bb-4d90-89af-8687672cccbc}, !- Outside Boundary Condition Object
  NoSun,                                  !- Sun Exposure
  NoWind,                                 !- Wind Exposure
  ,                                       !- View Factor to Ground
  ,                                       !- Number of Vertices
  0, 7.6196, 3.0478,                      !- X,Y,Z Vertex 1 {m}
  0, 7.6196, 0,                           !- X,Y,Z Vertex 2 {m}
  0, 0, 0,                                !- X,Y,Z Vertex 3 {m}
  0, 0, 3.0478;                           !- X,Y,Z Vertex 4 {m}

OS:Construction,
  {d9ad7dea-23f7-437c-8c23-8a7728715fd6}, !- Handle
  int-walls,                              !- Name
  ,                                       !- Surface Rendering Name
  {66753b00-151f-47fe-b8ec-7624fb3244cc}, !- Layer 1
  {66753b00-151f-47fe-b8ec-7624fb3244cc}; !- Layer 2

OS:Space,
  {76510f42-51b6-42a9-86a5-7d6f393fb707}, !- Handle
  M S1 Apartment,                         !- Name
  {7b15c7a9-f9a6-48cc-81af-251ae324ec3b}, !- Space Type Name
  ,                                       !- Default Construction Set Name
  ,                                       !- Default Schedule Set Name
  0,                                      !- Direction of Relative North {deg}
  11.5818,                                !- X Origin {m}
  0,                                      !- Y Origin {m}
  3.0478,                                 !- Z Origin {m}
  {59e02782-cdcd-4bf0-bf72-3329769aca94}, !- Building Story Name
  {93064413-6ae5-4357-ad51-3b4d78542095}, !- Thermal Zone Name
  Yes,                                    !- Part of Total Floor Area
  {efa0799c-c2e3-4a69-baee-dc8b5a66b232}; !- Design Specification Outdoor Air Object Name

OS:ThermostatSetpoint:DualSetpoint,
  {c271a47b-4a7c-4ce9-b52d-3ad5f786cd92}, !- Handle
  {03d7ea32-406d-47ef-b473-ba0a8cf0f0a3}, !- Name
  {f1e30885-2216-4d44-9647-ad2341863391}, !- Heating Setpoint Temperature Schedule Name
  {29901eaa-9de5-49e7-a518-7aa5bc082f04}; !- Cooling Setpoint Temperature Schedule Name

OS:People:Definition,
  {6c7c7e5e-493f-4481-a6fb-87d66310feb7}, !- Handle
  M S1 Apartment People Definition,       !- Name
  People,                                 !- Number of People Calculation Method
  2.5,                                    !- Number of People {people}
  ,                                       !- People per Space Floor Area {person/m2}
  ,                                       !- Space Floor Area per Person {m2/person}
  0.3,                                    !- Fraction Radiant
  ,                                       !- Sensible Heat Fraction
  ,                                       !- Carbon Dioxide Generation Rate {m3/s-W}
  No,                                     !- Enable ASHRAE 55 Comfort Warnings
  ZoneAveraged;                           !- Mean Radiant Temperature Calculation Type

OS:People,
  {acf9388b-eb4b-41f5-96f6-bfd61076faf5}, !- Handle
  M S1 Apartment People,                  !- Name
  {6c7c7e5e-493f-4481-a6fb-87d66310feb7}, !- People Definition Name
  {76510f42-51b6-42a9-86a5-7d6f393fb707}, !- Space or SpaceType Name
  {2592788b-fc0b-4c08-b15b-442ed552c225}, !- Number of People Schedule Name
  {8cf86239-6cfa-47f9-9a83-eef6eb9db338}, !- Activity Level Schedule Name
  ,                                       !- Surface Name/Angle Factor List Name
  {08aa4c99-9682-4128-ae9c-9354e04c5a42}; !- Work Efficiency Schedule Name

OS:Schedule:Compact,
  {2592788b-fc0b-4c08-b15b-442ed552c225}, !- Handle
  APT_OCC_SCH,                            !- Name
  {00330cbb-9a5e-4e7b-8360-1e568cd95f76}, !- Schedule Type Limits Name
  Through: 12/31,                         !- Field 1
  For: AllDays,                           !- Field 2
  Until: 7:00,                            !- Field 3
  1.0,                                    !- Field 4
  Until: 8:00,                            !- Field 5
  0.85,                                   !- Field 6
  Until: 9:00,                            !- Field 7
  0.39,                                   !- Field 8
  Until: 16:00,                           !- Field 9
  0.25,                                   !- Field 10
  Until: 17:00,                           !- Field 11
  0.3,                                    !- Field 12
  Until: 18:00,                           !- Field 13
  0.52,                                   !- Field 14
  Until: 21:00,                           !- Field 15
  0.87,                                   !- Field 16
  Until: 24:00,                           !- Field 17
  1.0;                                    !- Field 18

OS:Schedule:Compact,
  {8cf86239-6cfa-47f9-9a83-eef6eb9db338}, !- Handle
  ACTIVITY_SCH,                           !- Name
  {2691de0c-d45f-4bd4-9499-0a90263ac0e5}, !- Schedule Type Limits Name
  Through: 12/31,                         !- Field 1
  For: AllDays,                           !- Field 2
  Until: 24:00,                           !- Field 3
  120;                                    !- Field 4

OS:ScheduleTypeLimits,
  {b003f1d5-f69a-42c8-801d-2beca00862b3}, !- Handle
  {ad2349a0-078b-4105-850f-6279f0379754}; !- Name

OS:ScheduleTypeLimits,
  {2691de0c-d45f-4bd4-9499-0a90263ac0e5}, !- Handle
  ActivityLevel,                          !- Name
  0,                                      !- Lower Limit Value {BasedOnField A4}