
OS:Version,
  {5eeb6f20-9ccb-40c9-90a3-84b903e4fef0}, !- Handle
  1.8.5;                                  !- Version Identifier

OS:Site,
  {948ec38e-1c75-4297-9598-0d6cf1d58d15}, !- Handle
  USA IL-CHICAGO-OHARE,                   !- Name
  41.77,                                  !- Latitude {deg}
  -87.75,                                 !- Longitude {deg}
  -6,                                     !- Time Zone {hr}
  190,                                    !- Elevation {m}
  City;                                   !- Terrain

OS:SimulationControl,
  {c431ca1d-c2b0-4eac-a7e6-c53e600c7dd4}, !- Handle
  Yes,                                    !- Do Zone Sizing Calculation
  Yes,                                    !- Do System Sizing Calculation
  Yes,                                    !- Do Plant Sizing Calculation
  No,                                     !- Run Simulation for Sizing Periods
  Yes,                                    !- Run Simulation for Weather File Run Periods
  0.04,                                   !- Loads Convergence Tolerance Value
  0.2,                                    !- Temperature Convergence Tolerance Value {deltaC}
  FullInteriorAndExterior,                !- Solar Distribution
  25,                                     !- Maximum Number of Warmup Days
  6;                                      !- Minimum Number of Warmup Days

OS:Space,
  {f0fdf49b-7b97-4c3a-97ef-2ab747884468}, !- Handle
  T NE Apartment,                         !- Name
  {673ba6ec-d6e5-4d82-910c-5d822202058f}, !- Space Type Name
  ,                                       !- Default Construction Set Name
  ,                                       !- Default Schedule Set Name
  0,                                      !- Direction of Relative North {deg}
  34.7455,                                !- X Origin {m}
  9.2959,                                 !- Y Origin {m}
  9.1435,                                 !- Z Origin {m}
  {03e5aef6-2b3b-420a-a98a-1d60770df27e}, !- Building Story Name
  {a4cfdd61-6421-49ae-af8e-5e434c8fd036}, !- Thermal Zone Name
  Yes,                                    !- Part of Total Floor Area
  {8323d54c-053c-4884-84d8-7608abf96f34}; !- Design Specification Outdoor Air Object Name

OS:ThermostatSetpoint:DualSetpoint,
  {af269317-840c-42bb-bff7-97b48ae91fe8}, !- Handle
  {30a3f315-2a45-40d0-a43a-ab5712c81b55}, !- Name
  {16627767-0d3c-42eb-9a85-eab68126503f}, !- Heating Setpoint Temperature Schedule Name
  {89277045-e9d7-4625-8718-563c2a16faa7}; !- Cooling Setpoint Temperature Schedule Name

OS:Schedule:Compact,
  {16627767-0d3c-42eb-9a85-eab68126503f}, !- Handle
  APT_HTGSETP_SCH,                        !- Name
  {65d5ee34-f057-453e-ae14-a7f5d6647cb5}, !- Schedule Type Limits Name
  THROUGH: 12/31,                         !- Field 1
  FOR:AllDays,                            !- Field 2
  UNTIL: 24:00,                           !- Field 3
  21.1;                                   !- Field 4

OS:ScheduleTypeLimits,
  {65d5ee34-f057-453e-ae14-a7f5d6647cb5}, !- Handle
  Temperature,                            !- Name
  -60,                                    !- Lower Limit Value {BasedOnField A4}
  200,                                    !- Upper Limit Value {BasedOnField A4}
  CONTINUOUS,                             !- Numeric Type
  Temperature;                            !- Unit Type

OS:Schedule:Compact,
  {89277045-e9d7-4625-8718-563c2a16faa7}, !- Handle
  APT_CLGSETP_SCH,                        !- Name
  {65d5ee34-f057-453e-ae14-a7f5d6647cb5}, !- Schedule Type Limits Name
  THROUGH: 12/31,                         !- Field 1
  FOR:AllDays,                            !- Field 2
  UNTIL: 24:00,                           !- Field 3
  23.9;                                   !- Field 4

OS:DesignSpecification:OutdoorAir,
  {8323d54c-053c-4884-84d8-7608abf96f34}, !- Handle
  SZ DSOA T NE Apartment,                 !- Name
  ,                                       !- Outdoor Air Method
  ,                                       !- Outdoor Air Flow per Person {m3/s-person}
  ,                                       !- Outdoor Air Flow per Floor Area {m3/s-m2}
  0.04248,                                !- Outdoor Air Flow Rate {m3/s}
  ,                                       !- Outdoor Air Flow Air Changes per Hour {1/hr}
  ;                                       !- Outdoor Air Flow Rate Fraction Schedule Name

OS:Lights:Definition,
  {2867a6b6-d6cc-4279-a23f-cde2ee008dca}, !- Handle
  G Corridor_Lights Definition,           !- Name
  Watts/Area,                             !- Design Level Calculation Method
  ,                                       !- Lighting Level {W}
  5.38,                                   !- Watts per Space Floor Area {W/m2}
  ,                                       !- Watts per Person {W/person}
  0.7,                                    !- Fraction Radiant
  0.2,                                    !- Fraction Visible
  0,                                      !- Return Air Fraction
  No;                                     !- Return Air Fraction Calculated from Plenum Temperature

OS:Lights,
  {0bbf2ec6-d120-4c90-8f54-4a4abdd744a4}, !- Handle
  G Corridor_Lights,                      !- Name
  {2867a6b6-d6cc-4279-a23f-cde2ee008dca}, !- Lights Definition Name
  {b7158925-209c-48d2-aae0-9704728f4a50}, !- Space or SpaceType Name
  {b99832fe-be9f-4651-a0e8-2f635dcbaba4}, !- Schedule Name
  1,                                      !- Fraction Replaceable
  ,                                       !- Multiplier
  General;                                !- End-Use Subcategory

OS:Space,
  {b7158925-209c-48d2-aae0-9704728f4a50}, !- Handle
  G Corridor,                             !- Name
  {89e3a895-263f-471e-a170-88dd0bad0adf}, !- Space Type Name
  ,                                       !- Default Construction Set Name
  ,                                       !- Default Schedule Set Name
  0,                                      !- Direction of Relative North {deg}
  0,                                      !- X Origin {m}
  7.6196,                                 !- Y Origin {m}
  0,                                      !- Z Origin {m}
  {7572dfc9-8e64-4d1a-a3d6-03ecf7ef23fa}, !- Building Story Name
  {121f9409-a24b-4db1-a528-7c8667b8a107}, !- Thermal Zone Name
  Yes,                                    !- Part of Total Floor Area
  {a1ac61d7-07ae-4c7a-adff-c725e1a1f899}; !- Design Specification Outdoor Air Object Name

OS:ThermostatSetpoint:DualSetpoint,
  {85bfe3c0-0b41-4821-9434-ec17dd6f2580}, !- Handle
  {e1407ef4-9f3e-4509-acf5-1b93b350de03}, !- Name
  {b012b787-7084-4342-b7af-afe85ef0410c}, !- Heating Setpoint Temperature Schedule Name
  {c68c6d18-a640-41c3-9feb-8094b38d3a71}; !- Cooling Setpoint Temperature Schedule Name

OS:Schedule:Compact,
  {b012b787-7084-4342-b7af-afe85ef0410c}, !- Handle
  UnitHeater_HtgSP_Sch,                   !- Name
  {65d5ee34-f057-453e-ae14-a7f5d6647cb5}, !- Schedule Type Limits Name
  THROUGH: 12/31,                         !- Field 1
  FOR:AllDays,                            !- Field 2
  UNTIL: 24:00,                           !- Field 3
  15.6;                                   !- Field 4

OS:Schedule:Compact,
  {c68c6d18-a640-41c3-9feb-8094b38d3a71}, !- Handle
  UnitHeater_ClgSP_Sch,                   !- Name
  {65d5ee34-f057-453e-ae14-a7f5d6647cb5}, !- Schedule Type Limits Name
  THROUGH: 12/31,                         !- Field 1
  FOR:AllDays,                            !- Field 2
  UNTIL: 24:00,                           !- Field 3
  40;                                     !- Field 4

OS:Schedule:Compact,
  {b99832fe-be9f-4651-a0e8-2f635dcbaba4}, !- Handle
  COR_LIGHT_SCH,                          !- Name
  {186acb24-bf92-4775-95ec-19ed628d6294}, !- Schedule Type Limits Name
  Through: 12/31,                         !- Field 1
  For: AllDays,                           !- Field 2
  Until: 24:00,                           !- Field 3
  1.0;                                    !- Field 4

OS:ScheduleTypeLimits,
  {186acb24-bf92-4775-95ec-19ed628d6294}, !- Handle
  Fraction,                               !- Name
  0,                                      !- Lower Limit Value {BasedOnField A4}
  1,                                      !- Upper Limit Value {BasedOnField A4}
  CONTINUOUS;                             !- Numeric Type

OS:Space,
  {3bff448a-2d8e-4ad4-a382-4f3d253be01d}, !- Handle
  M NE Apartment,                         !- Name
  {673ba6ec-d6e5-4d82-910c-5d822202058f}, !- Space Type Name
  ,                                       !- Default Construction Set Name
  ,                                       !- Default Schedule Set Name
  0,                                      !- Direction of Relative North {deg}
  34.7455,                                !- X Origin {m}
  9.2959,                                 !- Y Origin {m}
  3.0478,                                 !- Z Origin {m}
  {59185b6a-865a-449a-bc2e-143937eaa20c}, !- Building Story Name
  {f3198bfb-d3b8-445f-a714-bfc574d4513b}, !- Thermal Zone Name
  Yes,                                    !- Part of Total Floor Area
  {579fb7b7-8981-419a-9289-dc39e0e8615b}; !- Design Specification Outdoor Air Object Name

OS:ThermostatSetpoint:DualSetpoint,
  {b0d247f6-f1de-47f1-9490-5e0fe9317b93}, !- Handle
  {98db0b88-e429-4cc3-aaf3-1504c67a9926}, !- Name
  {16627767-0d3c-42eb-9a85-eab68126503f}, !- Heating Setpoint Temperature Schedule Name
  {89277045-e9d7-4625-8718-563c2a16faa7}; !- Cooling Setpoint Temperature Schedule Name

OS:Surface,
  {ecc56d12-143f-44b7-95fc-f0d8be89603e}, !- Handle
  t SWall S1A,                            !- Name
  Wall,                                   !- Surface Type
  {b19a2819-5b5c-4a6b-a3c5-4ea19a689ce4}, !- Construction Name
  {d3b13476-270c-4761-9046-5d98a3437b32}, !- Space Name
  Outdoors,                               !- Outside Boundary Condition
  ,                                       !- Outside Boundary Condition Object
  SunExposed,                             !- Sun Exposure
  WindExposed,                            !- Wind Exposure
  ,                                       !- View Factor to Ground
  ,                                       !- Number of Vertices
  0, 0, 3.0478,                           !- X,Y,Z Vertex 1 {m}
  0, 0, 0,                                !- X,Y,Z Vertex 2 {m}
  11.5818, 0, 0,                          !- X,Y,Z Vertex 3 {m}
  11.5818, 0, 3.0478;                     !- X,Y,Z Vertex 4 {m}

OS:Construction,
  {b19a2819-5b5c-4a6b-a3c5-4ea19a689ce4}, !- Handle
  Steel Frame Res Ext Wall,               !- Name
  ,                                       !- Surface Rendering Name
  {85da3dbb-d818-487c-8b02-cdd7942af858}, !- Layer 1
  {a598985f-62f9-4132-af49-0cbe5253c151}, !- Layer 2
  {b54b65bb-c5d6-4824-9561-ca8cffbf0184}; !- Layer 3

OS:Material,
  {85da3dbb-d818-487c-8b02-cdd7942af858}, !- Handle
  Wood Siding,                            !- Name
  MediumSmooth,                           !- Roughness
  0.01,                                   !- Thickness {m}
  0.11,                                   !- Conductivity {W/m-K}
  544.62,                                 !- Density {kg/m3}
  1210,                                   !- Specific Heat {J/kg-K}
  0.9,                                    !- Thermal Absorptance
  0.78,                                   !- Solar Absorptance
  0.78;                                   !- Visible Absorptance

OS:Material,
  {a598985f-62f9-4132-af49-0cbe5253c151}, !- Handle
  Steel Frame Res Wall Insulation,        !- Name
  MediumRough,                            !- Roughness
  0.119161363096001,                      !- Thickness {m}
  0.049,                                  !- Conductivity {W/m-K}
  265,                                    !- Density {kg/m3}
  836.8,                                  !- Specific Heat {J/kg-K}
  0.9,                                    !- Thermal Absorptance
  0.7,                                    !- Solar Absorptance
  0.7;                                    !- Visible Absorptance

OS:Material,
  {b54b65bb-c5d6-4824-9561-ca8cffbf0184}, !- Handle
  1/2IN Gypsum,                           !- Name
  Smooth,                                 !- Roughness
  0.0127,                                 !- Thickness {m}
  0.16,                                   !- Conductivity {W/m-K}
  784.9,                                  !- Density {kg/m3}
  830,                                    !- Specific Heat {J/kg-K}
  0.9,                                    !- Thermal Absorptance
  0.92,                                   !- Solar Absorptance
  0.92;                                   !- Visible Absorptance

OS:Space,
  {d3b13476-270c-4761-9046-5d98a3437b32}, !- Handle
  T S1 Apartment,                         !- Name
  {673ba6ec-d6e5-4d82-910c-5d822202058f}, !- Space Type Name
  ,                                       !- Default Construction Set Name
  ,                                       !- Default Schedule Set Name
  0,                                      !- Direction of Relative North {deg}
  11.5818,                                !- X Origin {m}
  0,                                      !- Y Origin {m}
  9.1435,                                 !- Z Origin {m}
  {03e5aef6-2b3b-420a-a98a-1d60770df27e}, !- Building Story Name
  {7b169c63-4165-47bd-9dd4-dc2b149ee567}, !- Thermal Zone Name
  Yes,                                    !- Part of Total Floor Area
  {8fd43ff1-dd74-4281-8a1c-583be0e8b6d3}; !- Design Specification Outdoor Air Object Name

OS:ThermostatSetpoint:DualSetpoint,
  {410dbf42-3fa0-4d5c-bffa-8361bd2d2895}, !- Handle
  {988634c9-c779-402a-8d7f-93d8170d4c7e}, !- Name
  {16627767-0d3c-42eb-9a85-eab68126503f}, !- Heating Setpoint Temperature Schedule Name
  {89277045-e9d7-4625-8718-563c2a16faa7}; !- Cooling Setpoint Temperature Schedule Name

OS:Surface,
  {9928916b-6f20-4778-91ce-c1467b581d0a}, !- Handle
  t NIWall SWA,                           !- Name
  Wall,                                   !- Surface Type
  {7990b387-7972-4378-b306-0f84b1ee7f85}, !- Construction Name
  {3203b536-7fbf-4c56-bd97-fda27930bbf8}, !- Space Name
  Surface,                                !- Outside Boundary Condition
  {6730b893-bfb6-49fb-986b-09b6ef18a175}, !- Outside Boundary Condition Object
  NoSun,                                  !- Sun Exposure
  NoWind,                                 !- Wind Exposure
  ,                                       !- View Factor to Ground
  ,                                       !- Number of Vertices
  11.5818, 7.6196, 3.0478,                !- X,Y,Z Vertex 1 {m}
  11.5818, 7.6196, 0,                     !- X,Y,Z Vertex 2 {m}
  0, 7.6196, 0,                           !- X,Y,Z Vertex 3 {m}
  0, 7.6196, 3.0478;                      !- X,Y,Z Vertex 4 {m}

OS:Construction,
  {7990b387-7972-4378-b306-0f84b1ee7f85}, !- Handle
  int-walls,                              !- Name
  ,                                       !- Surface Rendering Name
  {b54b65bb-c5d6-4824-9561-ca8cffbf0184}, !- Layer 1
  {b54b65bb-c5d6-4824-9561-ca8cffbf0184}; !- Layer 2

OS:Space,
  {3203b536-7fbf-4c56-bd97-fda27930bbf8}, !- Handle
  T SW Apartment,                         !- Name
  {673ba6ec-d6e5-4d82-910c-5d822202058f}, !- Space Type Name
  ,                                       !- Default Construction Set Name
  ,                                       !- Default Schedule Set Name
  0,                                      !- Direction of Relative North {deg}
  0,                                      !- X Origin {m}
  0,                                      !- Y Origin {m}
  9.1435,                                 !- Z Origin {m}
  {03e5aef6-2b3b-420a-a98a-1d60770df27e}, !- Building Story Name
  {7b169c63-4165-47bd-9dd4-dc2b149ee567}, !- Thermal Zone Name
  Yes,                                    !- Part of Total Floor Area
  {218a01c3-80c4-4be9-904e-f0d8acf37419}; !- Design Specification Outdoor Air Object Name

OS:ThermostatSetpoint:DualSetpoint,
  {f947c9fc-24ba-4ed3-b8eb-bf52f14e0e99}, !- Handle
  {883399d5-0c70-4716-b171-146c184634a1}, !- Name
  {16627767-0d3c-42eb-9a85-eab68126503f}, !- Heating Setpoint Temperature Schedule Name
  {89277045-e9d7-4625-8718-563c2a16faa7}; !- Cooling Setpoint Temperature Schedule Name

OS:Surface,
  {1f9dfcd6-b3d3-4d85-aba0-0030090ed22d}, !- Handle
  g WWall NWA,                            !- Name
  Wall,                                   !- Surface Type
  {b19a2819-5b5c-4a6b-a3c5-4ea19a689ce4}, !- Construction Name
  {415570f4-821e-4125-ba87-ef66d45e01fe}, !- Space Name
  Outdoors,                               !- Outside Boundary Condition
  ,                                       !- Outside Boundary Condition Object
  SunExposed,                             !- Sun Exposure
  WindExposed,                            !- Wind Exposure
  ,                                       !- View Factor to Ground
  ,                                       !- Number of Vertices
  0, 7.6196, 3.0478,                      !- X,Y,Z Vertex 1 {m}
  0, 7.6196, 0,                           !- X,Y,Z Vertex 2 {m}
  0, 0, 0,                                !- X,Y,Z Vertex 3 {m}
  0, 0, 3.0478;                           !- X,Y,Z Vertex 4 {m}

OS:Space,
  {415570f4-821e-4125-ba87-ef66d45e01fe}, !- Handle
  G NW Apartment,                         !- Name
  {673ba6ec-d6e5-4d82-910c-5d822202058f}, !- Space Type Name
  ,                                       !- Default Construction Set Name
  ,                                       !- Default Schedule Set Name
  0,                                      !- Direction of Relative North {deg}
  0,                                      !- X Origin {m}
  9.2959,                                 !- Y Origin {m}
  0,                                      !- Z Origin {m}
  {7572dfc9-8e64-4d1a-a3d6-03ecf7ef23fa}, !- Building Story Name
  {7e4bb13c-6d5a-405b-96f8-0e13ef7158fd}, !- Thermal Zone Name
  Yes,                                    !- Part of Total Floor Area
  {5406a88f-d76f-4fd0-ac72-60b3a323e6cd}; !- Design Specification Outdoor Air Object Name

OS:ThermostatSetpoint:DualSetpoint,
  {a371116f-6788-4ea6-bc00-b8b41ee15d54}, !- Handle
  {2688b1d2-f1dd-47e1-8ba4-3912c9c191b5}, !- Name
  {16627767-0d3c-42eb-9a85-eab68126503f}, !- Heating Setpoint Temperature Schedule Name
  {89277045-e9d7-4625-8718-563c2a16faa7}; !- Cooling Setpoint Temperature Schedule Name

OS:ThermostatSetpoint:DualSetpoint,
  {30593cbf-bd18-4f60-b801-08a3d4f763f9}, !- Handle
  {342ba3bd-ca1f-45cb-9ebb-c3275517d2f8}, !- Name
  {16627767-0d3c-42eb-9a85-eab68126503f}, !- Heating Setpoint Temperature Schedule Name
  {89277045-e9d7-4625-8718-563c2a16faa7}; !- Cooling Setpoint Temperature Schedule Name

OS:Material,
  {aff936f2-5dfa-4ad9-8aba-54efd6cdb258}, !- Handle
  MAT-CC05 4 HW CONCRETE,                 !- Name
  Rough,                                  !- Roughness
  0.1016,                                 !- Thickness {m}
  1.311,                                  !- Conductivity {W/m-K}
  2240,                                   !- Density {kg/m3}
  836.8,                                  !- Specific Heat {J/kg-K}
  0.9,                                    !- Thermal Absorptance
  0.7,                                    !- Solar Absorptance
  0.7;                                    !- Visible Absorptance

OS:Space,
  {b023d216-742d-47bb-be92-3dc22f85ce9c}, !- Handle
  M S2 Apartment,                         !- Name
  {673ba6ec-d6e5-4d82-910c-5d822202058f}, !- Space Type Name
  ,                                       !- Default Construction Set Name
  ,                                       !- Default Schedule Set Name
  0,                                      !- Direction of Relative North {deg}
  23.1637,                                !- X Origin {m}
  0,                                      !- Y Origin {m}
  3.0478,                                 !- Z Origin {m}
  {59185b6a-865a-449a-bc2e-143937eaa20c}, !- Building Story Name
  {cd09aea6-8ec5-464b-a7cd-2c1ce62ab022}, !- Thermal Zone Name
  Yes,                                    !- Part of Total Floor Area
  {d7b943b5-5074-4140-96fa-6e89228c6d0e}; !- Design Specification Outdoor Air Object Name

OS:ThermostatSetpoint:DualSetpoint,
  {ac515539-c42f-4769-8e44-2d6aa71f4f85}, !- Handle
  {73aa0a4d-f94c-4800-8aa6-b778383a4b9e}, !- Name
  {16627767-0d3c-42eb-9a85-eab68126503f}, !- Heating Setpoint Temperature Schedule Name
  {89277045-e9d7-4625-8718-563c2a16faa7}; !- Cooling Setpoint Temperature Schedule Name

OS:DesignSpecification:OutdoorAir,
  {d7b943b5-5074-4140-96fa-6e89228c6d0e}, !- Handle
  SZ DSOA M S2 Apartment,                 !- Name
  ,                                       !- Outdoor Air Method
  ,                                       !- Outdoor Air Flow per Person {m3/s-person}
  ,                                       !- Outdoor Air Flow per Floor Area {m3/s-m2}
  0.04248,                                !- Outdoor Air Flow Rate {m3/s}
  ,                                       !- Outdoor Air Flow Air Changes per Hour {1/hr}
  ;                                       !- Outdoor Air Flow Rate Fraction Schedule Name

OS:People:Definition,
  {2f448776-58ca-472c-9d45-42492516db61}, !- Handle
  T S2 Apartment People Definition,       !- Name
  People,                                 !- Number of People Calculation Method
  2.5,                                    !- Number of People {people}
  ,                                       !- People per Space Floor Area {person/m2}
  ,                                       !- Space Floor Area per Person {m2/person}
  0.3,                                    !- Fraction Radiant
  ,                                       !- Sensible Heat Fraction
  ,                                       !- Carbon Dioxide Generation Rate {m3/s-W}
  No,                                     !- Enable ASHRAE 55 Comfort Warnings
  ZoneAveraged;                           !- Mean Radiant Temperature Calculation Type

OS:People,
  {a96087d1-9af1-4328-8ae9-9c768b3f183f}, !- Handle
  T S2 Apartment People,                  !- Name
  {2f448776-58ca-472c-9d45-42492516db61}, !- People Definition Name
  {724f02cb-84ef-4c5a-853c-4178e40296b2}, !- Space or SpaceType Name
  {e45388b8-3805-445c-bb1d-34f3d8250270}, !- Number of People Schedule Name
  {46ea9780-7ddb-4c4b-9bcf-c68724d910f0}, !- Activity Level Schedule Name
  ,                                       !- Surface Name/Angle Factor List Name
  {34bb1d0c-1d42-4315-b4d7-048dc196734f}; !- Work Efficiency Schedule Name

OS:Space,
  {724f02cb-84ef-4c5a-853c-4178e40296b2}, !- Handle
  T S2 Apartment,                         !- Name
  {673ba6ec-d6e5-4d82-910c-5d822202058f}, !- Space Type Name
  ,                                       !- Default Construction Set Name
  ,                                       !- Default Schedule Set Name
  0,                                      !- Direction of Relative North {deg}
  23.1637,                                !- X Origin {m}
  0,                                      !- Y Origin {m}
  9.1435,                                 !- Z Origin {m}
  {03e5aef6-2b3b-420a-a98a-1d60770df27e}, !- Building Story Name
  {7b169c63-4165-47bd-9dd4-dc2b149ee567}, !- Thermal Zone Name
  Yes,                                    !- Part of Total Floor Area
  {e1f546d6-f0c4-4f69-ae83-22fed0adaac3}; !- Design Specification Outdoor Air Object Name

OS:ThermostatSetpoint:DualSetpoint,
  {7a645a6c-1f63-4606-b62e-94f0ccacfff3}, !- Handle
  {45f54f00-9b47-435a-8e49-55b298d2f67d}, !- Name
  {16627767-0d3c-42eb-9a85-eab68126503f}, !- Heating Setpoint Temperature Schedule Name
  {89277045-e9d7-4625-8718-563c2a16faa7}; !- Cooling Setpoint Temperature Schedule Name

OS:Schedule:Compact,
  {e45388b8-3805-445c-bb1d-34f3d8250270}, !- Handle
  APT_OCC_SCH,                            !- Name
  {186acb24-bf92-4775-95ec-19ed628d6294}, !- Schedule Type Limits Name
  Through: 12/31,                         !- Field 1
  For: AllDays,                           !- Field 2
  Until: 7:00,                            !- Field 3
  1.0,                                    !- Field 4
  Until: 8:00,                            !- Field 5
  0.85,                                   !- Field 6
  Until: 9:00,                            !- Field 7
  0.39,                                   !- Field 8
  Until: 16:00,                           !- Field 9
  0.25,                                   !- Field 10
  Until: 17:00,                           !- Field 11
  0.3,                                    !- Field 12
  Until: 18:00,                           !- Field 13
  0.52,                                   !- Field 14
  Until: 21:00,                           !- Field 15
  0.87,                                   !- Field 16
  Until: 24:00,                           !- Field 17
  1.0;                                    !- Field 18

OS:Schedule:Compact,
  {46ea9780-7ddb-4c4b-9bcf-c68724d910f0}, !- Handle
  ACTIVITY_SCH,                           !- Name
  {e14af9f8-f3ac-4110-9e87-aec6c02f725a}, !- Schedule Type Limits Name
  Through: 12/31,                         !- Field 1
  For: AllDays,                           !- Field 2
  Until: 24:00,                           !- Field 3
  120;                                    !- Field 4

OS:ScheduleTypeLimits,
  {e6873eec-6970-40d1-bcff-8cae4accd074}, !- Handle
  {6caa8500-2f53-476b-8a69-52b3a5ad4641}; !- Name

OS:ScheduleTypeLimits,
  {e14af9f8-f3ac-4110-9e87-aec6c02f725a}, !- Handle
  ActivityLevel,                          !- Name
  0,                                      !- Lower Limit Value {BasedOnField A4}
  ,                                       !- Upper Limit Value {BasedOnField A4}
  Continuous,                             !- Numeric Type
  ActivityLevel;                          !- Unit Type

OS:Schedule:Compact,
  {34bb1d0c-1d42-4315-b4d7-048dc196734f}, !- Handle
  WORK_EFF_SCH,                           !- Name
  {186acb24-bf92-4775-95ec-19ed628d6294}, !- Schedule Type Limits Name
  Through: 12/31,                         !- Field 1
  For: AllDays,                           !- Field 2
  Until: 24:00,                           !- Field 3
  0.0;                                    !- Field 4

OS:SubSurface,
  {3f9227bf-91d2-4c82-bdb8-cf245528f9cb}, !- Handle
  TWindow3,                               !- Name
  FixedWindow,                            !- Sub Surface Type
  {df781071-e80f-4186-b5c1-8911f02c18ef}, !- Construction Name
  {5f5e28bf-0a8f-44c8-876d-e36067e55ff4}, !- Surface Name
  ,                                       !- Outside Boundary Condition Object
  ,                                       !- View Factor to Ground
  ,                                       !- Shading Control Name
  ,                                       !- Frame and Divider Name
  1,                                      !- Multiplier
  ,                                       !- Number of Vertices
  3.657, 0, 2.1731,                       !- X,Y,Z Vertex 1 {m}
  3.657, 0, 0.954,                        !- X,Y,Z Vertex 2 {m}
  7.924, 0, 0.954,                        !- X,Y,Z Vertex 3 {m}
  7.924, 0, 2.1731;                       !- X,Y,Z Vertex 4 {m}

OS:Construction,
  {df781071-e80f-4186-b5c1-8911f02c18ef}, !- Handle
  Window Res Operable,                    !- Name
  ,                                       !- Surface Rendering Name
  {5a3180f4-47fc-409a-8c01-2c56fa9daccc}; !- Layer 1

OS:WindowMaterial:SimpleGlazingSystem,
  {5a3180f4-47fc-409a-8c01-2c56fa9daccc}, !- Handle
  Res Operable Assembly Window,           !- Name
  3.80426,                                !- U-Factor {W/m2-K}
  0.39;                                   !- Solar Heat Gain Coefficient

OS:Surface,
  {5f5e28bf-0a8f-44c8-876d-e36067e55ff4}, !- Handle
  t SWall SEA,                            !- Name
  Wall,                                   !- Surface Type
  {b19a2819-5b5c-4a6b-a3c5-4ea19a689ce4}, !- Construction Name
  {2b166e12-d3e6-425b-9092-64ac5896564f}, !- Space Name
  Outdoors,                               !- Outside Boundary Condition
  ,                                       !- Outside Boundary Condition Object
  SunExposed,                             !- Sun Exposure
  WindExposed,                            !- Wind Exposure
  ,                                       !- View Factor to Ground
  ,                                       !- Number of Vertices
  0, 0, 3.0478,                           !- X,Y,Z Vertex 1 {m}
  0, 0, 0,                                !- X,Y,Z Vertex 2 {m}
  11.5818, 0, 0,                          !- X,Y,Z Vertex 3 {m}
  11.5818, 0, 3.0478;                     !- X,Y,Z Vertex 4 {m}

OS:Space,
  {2b166e12-d3e6-425b-9092-64ac5896564f}, !- Handle
  T SE Apartment,                         !- Name
  {673ba6ec-d6e5-4d82-910c-5d822202058f}, !- Space Type Name
  ,                                       !- Default Construction Set Name
  ,                                       !- Default Schedule Set Name
  0,                                      !- Direction of Relative North {deg}
  34.7455,                                !- X Origin {m}
  0,                                      !- Y Origin {m}
  9.1435,                                 !- Z Origin {m}
  {03e5aef6-2b3b-420a-a98a-1d60770df27e}, !- Building Story Name
  {7b169c63-4165-47bd-9dd4-dc2b149ee567}, !- Thermal Zone Name
  Yes,                                    !- Part of Total Floor Area
  {d4c45d68-033d-46d4-bd55-f76c48e997e6}; !- Design Specification Outdoor Air Object Name

OS:ThermostatSetpoint:DualSetpoint,
  {b4bf79fc-86ca-45c5-af3d-2a0c573da5d2}, !- Handle
  {69863fbc-18a9-4c9b-8083-c4764b871f04}, !- Name
  {16627767-0d3c-42eb-9a85-eab68126503f}, !- Heating Setpoint Temperature Schedule Name
  {89277045-e9d7-4625-8718-563c2a16faa7}; !- Cooling Setpoint Temperature Schedule Name

OS:Space,
  {a5ac5f48-4f0c-46dd-aee6-985381a944c2}, !- Handle
  G SW Apartment,                         !- Name
  {673ba6ec-d6e5-4d82-910c-5d822202058f}, !- Space Type Name