
OS:Version,
  {da818c66-45f5-491f-b7bd-3cf4badf8978}, !- Handle
  1.8.0;                                  !- Version Identifier

OS:Site,
  {a9e9615f-0aca-40a4-9203-baa2a649e314}, !- Handle
  USA IL-CHICAGO-OHARE,                   !- Name
  41.77,                                  !- Latitude {deg}
  -87.75,                                 !- Longitude {deg}
  -6,                                     !- Time Zone {hr}
  190,                                    !- Elevation {m}
  City;                                   !- Terrain

OS:SimulationControl,
  {610b5529-9825-4504-884e-b61049573563}, !- Handle
  Yes,                                    !- Do Zone Sizing Calculation
  Yes,                                    !- Do System Sizing Calculation
  Yes,                                    !- Do Plant Sizing Calculation
  No,                                     !- Run Simulation for Sizing Periods
  Yes,                                    !- Run Simulation for Weather File Run Periods
  0.04,                                   !- Loads Convergence Tolerance Value
  0.2,                                    !- Temperature Convergence Tolerance Value {deltaC}
  FullInteriorAndExterior,                !- Solar Distribution
  25,                                     !- Maximum Number of Warmup Days
  6;                                      !- Minimum Number of Warmup Days

OS:ElectricEquipment:Definition,
  {07213f10-c9ea-41ce-a5a8-fdd2716e1e59}, !- Handle
  G S2 Apartment_PlugMisc_Equip Definition, !- Name
  Watts/Area,                             !- Design Level Calculation Method
  ,                                       !- Design Level {W}
  5.38,                                   !- Watts per Space Floor Area {W/m2}
  ,                                       !- Watts per Person {W/person}
  0,                                      !- Fraction Latent
  0.5,                                    !- Fraction Radiant
  0;                                      !- Fraction Lost

OS:ElectricEquipment,
  {7ada72f2-78fd-4881-8024-689464b01890}, !- Handle
  G S2 Apartment_PlugMisc_Equip,          !- Name
  {07213f10-c9ea-41ce-a5a8-fdd2716e1e59}, !- Electric Equipment Definition Name
  {acf3a834-cace-4cfc-8907-fe852b0cf006}, !- Space or SpaceType Name
  {dea31965-2b78-4ce5-8965-5b7742c092d0}, !- Schedule Name
  ,                                       !- Multiplier
  General;                                !- End-Use Subcategory

OS:Space,
  {acf3a834-cace-4cfc-8907-fe852b0cf006}, !- Handle
  G S2 Apartment,                         !- Name
  {4a55773f-8829-4bf8-a0dc-1d88a3e64d11}, !- Space Type Name
  ,                                       !- Default Construction Set Name
  ,                                       !- Default Schedule Set Name
  0,                                      !- Direction of Relative North {deg}
  23.1637,                                !- X Origin {m}
  0,                                      !- Y Origin {m}
  0,                                      !- Z Origin {m}
  {15d426bd-0c93-4976-94f1-bc047f2aa0a7}, !- Building Story Name
  {15a50967-6db3-4843-b26d-eb0583f76938}, !- Thermal Zone Name
  Yes,                                    !- Part of Total Floor Area
  {30f8811a-ee0f-46d7-9f50-fe7f958de199}; !- Design Specification Outdoor Air Object Name

OS:ThermostatSetpoint:DualSetpoint,
  {47bbfa0d-8221-47b1-9ee5-9256ed4c8c38}, !- Handle
  {b1fafaea-38ce-4efe-b92e-8a42239db788}, !- Name
  {d89e7f39-f74b-4ae2-8621-0a5b05262f7d}, !- Heating Setpoint Temperature Schedule Name
  {c64f6e5c-2875-4b9a-b79c-7aafbb26f2b4}; !- Cooling Setpoint Temperature Schedule Name

OS:Schedule:Compact,
  {d89e7f39-f74b-4ae2-8621-0a5b05262f7d}, !- Handle
  APT_HTGSETP_SCH,                        !- Name
  {10bcfe06-f18d-469e-a0ff-b168bdb7c18d}, !- Schedule Type Limits Name
  THROUGH: 12/31,                         !- Field 1
  FOR:AllDays,                            !- Field 2
  UNTIL: 24:00,                           !- Field 3
  21.1;                                   !- Field 4

OS:ScheduleTypeLimits,
  {10bcfe06-f18d-469e-a0ff-b168bdb7c18d}, !- Handle
  Temperature,                            !- Name
  -60,                                    !- Lower Limit Value {BasedOnField A4}
  200,                                    !- Upper Limit Value {BasedOnField A4}
  CONTINUOUS,                             !- Numeric Type
  Temperature;                            !- Unit Type

OS:Schedule:Compact,
  {c64f6e5c-2875-4b9a-b79c-7aafbb26f2b4}, !- Handle
  APT_CLGSETP_SCH,                        !- Name
  {10bcfe06-f18d-469e-a0ff-b168bdb7c18d}, !- Schedule Type Limits Name
  THROUGH: 12/31,                         !- Field 1
  FOR:AllDays,                            !- Field 2
  UNTIL: 24:00,                           !- Field 3
  23.9;                                   !- Field 4

OS:Schedule:Compact,
  {dea31965-2b78-4ce5-8965-5b7742c092d0}, !- Handle
  APT_EQP_SCH,                            !- Name
  {35160784-eee1-4b4f-bdcd-5a104e17a136}, !- Schedule Type Limits Name
  Through: 12/31,                         !- Field 1
  For: AllDays,                           !- Field 2
  Until: 1:00,                            !- Field 3
  0.45,                                   !- Field 4
  Until: 2:00,                            !- Field 5
  0.41,                                   !- Field 6
  Until: 3:00,                            !- Field 7
  0.39,                                   !- Field 8
  Until: 5:00,                            !- Field 9
  0.38,                                   !- Field 10
  Until: 6:00,                            !- Field 11
  0.43,                                   !- Field 12
  Until: 7:00,                            !- Field 13
  0.54,                                   !- Field 14
  Until: 8:00,                            !- Field 15
  0.65,                                   !- Field 16
  Until: 9:00,                            !- Field 17
  0.66,                                   !- Field 18
  Until: 10:00,                           !- Field 19
  0.67,                                   !- Field 20
  Until: 11:00,                           !- Field 21
  0.69,                                   !- Field 22
  Until: 12:00,                           !- Field 23
  0.70,                                   !- Field 24
  Until: 13:00,                           !- Field 25
  0.69,                                   !- Field 26
  Until: 14:00,                           !- Field 27
  0.66,                                   !- Field 28
  Until: 15:00,                           !- Field 29
  0.65,                                   !- Field 30
  Until: 16:00,                           !- Field 31
  0.68,                                   !- Field 32
  Until: 17:00,                           !- Field 33
  0.80,                                   !- Field 34
  Until: 19:00,                           !- Field 35
  1.0,                                    !- Field 36
  Until: 20:00,                           !- Field 37
  0.93,                                   !- Field 38
  Until: 21:00,                           !- Field 39
  0.89,                                   !- Field 40
  Until: 22:00,                           !- Field 41
  0.85,                                   !- Field 42
  Until: 23:00,                           !- Field 43
  0.71,                                   !- Field 44
  Until: 24:00,                           !- Field 45
  0.58;                                   !- Field 46

OS:ScheduleTypeLimits,
  {35160784-eee1-4b4f-bdcd-5a104e17a136}, !- Handle
  Fraction,                               !- Name
  0,                                      !- Lower Limit Value {BasedOnField A4}
  1,                                      !- Upper Limit Value {BasedOnField A4}
  CONTINUOUS;                             !- Numeric Type

OS:Schedule:Compact,
  {ecfd5846-216e-4b04-9aef-3aa7798bc0f6}, !- Handle
  SWHSys1-Loop-Temp-Schedule,             !- Name
  {10bcfe06-f18d-469e-a0ff-b168bdb7c18d}, !- Schedule Type Limits Name
  Through: 12/31,                         !- Field 1
  For: AllDays,                           !- Field 2
  Until: 24:00,                           !- Field 3
  60.0;                                   !- Field 4

OS:Lights:Definition,
  {fc669fc8-9d9d-4f33-88fe-bc6af240bbc6}, !- Handle
  M SW Apartment_Lights Definition,       !- Name
  Watts/Area,                             !- Design Level Calculation Method
  ,                                       !- Lighting Level {W}
  3.88,                                   !- Watts per Space Floor Area {W/m2}
  ,                                       !- Watts per Person {W/person}
  0.7,                                    !- Fraction Radiant
  0.2,                                    !- Fraction Visible
  0,                                      !- Return Air Fraction
  No;                                     !- Return Air Fraction Calculated from Plenum Temperature

OS:Lights,
  {d0bdb292-462c-4f72-8b29-e32ca53f0a3d}, !- Handle
  M SW Apartment_Lights,                  !- Name
  {fc669fc8-9d9d-4f33-88fe-bc6af240bbc6}, !- Lights Definition Name
  {cd439b80-183f-4520-ac09-8c806ad59223}, !- Space or SpaceType Name
  {4b318ac3-3914-4bde-b92b-f50b44ac1b69}, !- Schedule Name
  1,                                      !- Fraction Replaceable
  ,                                       !- Multiplier
  General;                                !- End-Use Subcategory

OS:Space,
  {cd439b80-183f-4520-ac09-8c806ad59223}, !- Handle
  M SW Apartment,                         !- Name
  {4a55773f-8829-4bf8-a0dc-1d88a3e64d11}, !- Space Type Name
  ,                                       !- Default Construction Set Name
  ,                                       !- Default Schedule Set Name
  0,                                      !- Direction of Relative North {deg}
  0,                                      !- X Origin {m}
  0,                                      !- Y Origin {m}
  3.0478,                                 !- Z Origin {m}
  {c5cd6af2-5063-4f0f-87ee-dedeb793f550}, !- Building Story Name
  {97096809-e133-4c06-a83c-4c4291685b46}, !- Thermal Zone Name
  Yes,                                    !- Part of Total Floor Area
  {88bb27b5-e5e6-4cdc-a40e-fa8cc68f56d1}; !- Design Specification Outdoor Air Object Name

OS:ThermostatSetpoint:DualSetpoint,
  {6bf95482-6103-4eef-b523-bc1976e59e9f}, !- Handle
  {70fb18e8-2683-4e99-b9e9-34eeff054313}, !- Name
  {d89e7f39-f74b-4ae2-8621-0a5b05262f7d}, !- Heating Setpoint Temperature Schedule Name
  {c64f6e5c-2875-4b9a-b79c-7aafbb26f2b4}; !- Cooling Setpoint Temperature Schedule Name

OS:Schedule:Compact,
  {4b318ac3-3914-4bde-b92b-f50b44ac1b69}, !- Handle
  APT_LIGHT_SCH,                          !- Name
  {35160784-eee1-4b4f-bdcd-5a104e17a136}, !- Schedule Type Limits Name
  Through: 12/31,                         !- Field 1
  For: AllDays,                           !- Field 2
  Until: 04:00,                           !- Field 3
  0.067,                                  !- Field 4
  Until: 05:00,                           !- Field 5
  0.187,                                  !- Field 6
  Until: 06:00,                           !- Field 7
  0.394,                                  !- Field 8
  Until: 07:00,                           !- Field 9
  0.440,                                  !- Field 10
  Until: 08:00,                           !- Field 11
  0.393,                                  !- Field 12
  Until: 09:00,                           !- Field 13
  0.172,                                  !- Field 14
  Until: 15:00,                           !- Field 15
  0.119,                                  !- Field 16
  Until: 16:00,                           !- Field 17
  0.206,                                  !- Field 18
  Until: 17:00,                           !- Field 19
  0.439,                                  !- Field 20
  Until: 18:00,                           !- Field 21
  0.616,                                  !- Field 22
  Until: 19:00,                           !- Field 23
  0.829,                                  !- Field 24
  Until: 20:00,                           !- Field 25
  0.986,                                  !- Field 26
  Until: 21:00,                           !- Field 27
  1.0,                                    !- Field 28
  Until: 22:00,                           !- Field 29
  0.692,                                  !- Field 30
  Until: 23:00,                           !- Field 31
  0.384,                                  !- Field 32
  Until: 24:00,                           !- Field 33
  0.160;                                  !- Field 34

OS:InternalMass:Definition,
  {4865a3e5-0038-4be4-be13-7de48bf7596a}, !- Handle
  M SE Apartment Internal Mass Definition, !- Name
  {1915487a-a05c-4c25-85bc-8884d4132904}, !- Construction Name
  SurfaceArea,                            !- Design Level Calculation Method
  176.4974,                               !- Surface Area {m2}
  ,                                       !- Surface Area per Space Floor Area {dimensionless}
  ;                                       !- Surface Area per Person {m2/person}

OS:Construction,
  {1915487a-a05c-4c25-85bc-8884d4132904}, !- Handle
  InteriorFurnishings,                    !- Name
  ,                                       !- Surface Rendering Name
  {a275f085-1fbd-4bf7-b0e7-e8e8a577440d}; !- Layer 1

OS:Material,
  {a275f085-1fbd-4bf7-b0e7-e8e8a577440d}, !- Handle
  Std Wood 6inch,                         !- Name
  MediumSmooth,                           !- Roughness
  0.15,                                   !- Thickness {m}
  0.12,                                   !- Conductivity {W/m-K}
  540,                                    !- Density {kg/m3}
  1210,                                   !- Specific Heat {J/kg-K}
  0.9,                                    !- Thermal Absorptance
  0.7,                                    !- Solar Absorptance
  0.7;                                    !- Visible Absorptance

OS:InternalMass,
  {d1cf4216-646b-4c42-84c9-0d99fe62564a}, !- Handle
  M SE Apartment Internal Mass,           !- Name
  {4865a3e5-0038-4be4-be13-7de48bf7596a}, !- Internal Mass Definition Name
  {058fef0d-71bf-4f7c-9d24-858e0d36501d}; !- Space or SpaceType Name

OS:Space,
  {058fef0d-71bf-4f7c-9d24-858e0d36501d}, !- Handle
  M SE Apartment,                         !- Name
  {4a55773f-8829-4bf8-a0dc-1d88a3e64d11}, !- Space Type Name
  ,                                       !- Default Construction Set Name
  ,                                       !- Default Schedule Set Name
  0,                                      !- Direction of Relative North {deg}
  34.7455,                                !- X Origin {m}
  0,                                      !- Y Origin {m}
  3.0478,                                 !- Z Origin {m}
  {c5cd6af2-5063-4f0f-87ee-dedeb793f550}, !- Building Story Name
  {97096809-e133-4c06-a83c-4c4291685b46}, !- Thermal Zone Name
  Yes,                                    !- Part of Total Floor Area
  {1da5c2d5-6241-4bc1-b859-27c4c2320510}; !- Design Specification Outdoor Air Object Name

OS:ThermostatSetpoint:DualSetpoint,
  {88eada14-5e4c-489e-97f2-455584433c3f}, !- Handle
  {40d828f4-def8-4239-98b2-43e03057eecb}, !- Name
  {d89e7f39-f74b-4ae2-8621-0a5b05262f7d}, !- Heating Setpoint Temperature Schedule Name
  {c64f6e5c-2875-4b9a-b79c-7aafbb26f2b4}; !- Cooling Setpoint Temperature Schedule Name

OS:Surface,
  {c65e42bc-fe54-4120-a705-665313f44799}, !- Handle
  m GFloor N1A,                           !- Name
  Floor,                                  !- Surface Type
  {493ef58d-2a69-45bc-8d77-9db49da914e4}, !- Construction Name
  {2378e17f-a2ac-4166-b974-1b1c41cbd270}, !- Space Name
  Adiabatic,                              !- Outside Boundary Condition
  ,                                       !- Outside Boundary Condition Object
  NoSun,                                  !- Sun Exposure
  NoWind,                                 !- Wind Exposure
  ,                                       !- View Factor to Ground
  ,                                       !- Number of Vertices
  11.5818, 7.6196, 0,                     !- X,Y,Z Vertex 1 {m}
  11.5818, 0, 0,                          !- X,Y,Z Vertex 2 {m}
  0, 0, 0,                                !- X,Y,Z Vertex 3 {m}
  0, 7.6196, 0;                           !- X,Y,Z Vertex 4 {m}

OS:Construction,
  {493ef58d-2a69-45bc-8d77-9db49da914e4}, !- Handle
  INT-FLOOR-TOPSIDE,                      !- Name
  ,                                       !- Surface Rendering Name
  {84a0503e-dd9d-47b0-b138-d791fcb4b4b4}, !- Layer 1
  {2ff4ba2c-de07-4e82-82df-6d4f85615a12}; !- Layer 2

OS:Material,
  {84a0503e-dd9d-47b0-b138-d791fcb4b4b4}, !- Handle
  MAT-CC05 4 HW CONCRETE,                 !- Name
  Rough,                                  !- Roughness
  0.1016,                                 !- Thickness {m}
  1.311,                                  !- Conductivity {W/m-K}
  2240,                                   !- Density {kg/m3}
  836.8,                                  !- Specific Heat {J/kg-K}
  0.9,                                    !- Thermal Absorptance
  0.7,                                    !- Solar Absorptance
  0.7;                                    !- Visible Absorptance

OS:Material:NoMass,
  {2ff4ba2c-de07-4e82-82df-6d4f85615a12}, !- Handle
  CP02 CARPET PAD,                        !- Name
  VeryRough,                              !- Roughness
  0.2165,                                 !- Thermal Resistance {m2-K/W}
  0.9,                                    !- Thermal Absorptance
  0.7,                                    !- Solar Absorptance
  0.8;                                    !- Visible Absorptance

OS:Space,
  {2378e17f-a2ac-4166-b974-1b1c41cbd270}, !- Handle
  M N1 Apartment,                         !- Name
  {4a55773f-8829-4bf8-a0dc-1d88a3e64d11}, !- Space Type Name
  ,                                       !- Default Construction Set Name
  ,                                       !- Default Schedule Set Name
  0,                                      !- Direction of Relative North {deg}
  11.5818,                                !- X Origin {m}
  9.2959,                                 !- Y Origin {m}
  3.0478,                                 !- Z Origin {m}
  {c5cd6af2-5063-4f0f-87ee-dedeb793f550}, !- Building Story Name
  {eac551df-1d92-45fc-8f7e-1729808999e9}, !- Thermal Zone Name
  Yes,                                    !- Part of Total Floor Area
  {24136fa6-4fc0-48b0-ba45-7c4dd16f7460}; !- Design Specification Outdoor Air Object Name

OS:ThermostatSetpoint:DualSetpoint,
  {6ec326f5-4ea2-4a97-b8f5-504c7d9bdc4f}, !- Handle
  {67c17578-808f-48e2-8d62-40eee778dd10}, !- Name
  {d89e7f39-f74b-4ae2-8621-0a5b05262f7d}, !- Heating Setpoint Temperature Schedule Name
  {c64f6e5c-2875-4b9a-b79c-7aafbb26f2b4}; !- Cooling Setpoint Temperature Schedule Name

OS:SpaceInfiltration:DesignFlowRate,
  {600bebc7-cdfe-479c-9ba6-3decab292fa2}, !- Handle
  G NE Apartment_Infiltration,            !- Name
  {db413b7b-e2a7-4b71-93c2-73641cf1e130}, !- Space or SpaceType Name
  {b47c4512-b4a2-4c13-baa4-6390ece66962}, !- Schedule Name
  Flow/ExteriorArea,                      !- Design Flow Rate Calculation Method
  ,                                       !- Design Flow Rate {m3/s}
  ,                                       !- Flow per Space Floor Area {m3/s-m2}
  0.000302,                               !- Flow per Exterior Surface Area {m3/s-m2}
  ,                                       !- Air Changes per Hour {1/hr}
  1,                                      !- Constant Term Coefficient
  0,                                      !- Temperature Term Coefficient
  0,                                      !- Velocity Term Coefficient
  0;                                      !- Velocity Squared Term Coefficient

OS:Space,
  {db413b7b-e2a7-4b71-93c2-73641cf1e130}, !- Handle
  G NE Apartment,                         !- Name
  {4a55773f-8829-4bf8-a0dc-1d88a3e64d11}, !- Space Type Name
  ,                                       !- Default Construction Set Name
  ,                                       !- Default Schedule Set Name
  0,                                      !- Direction of Relative North {deg}
  34.7455,                                !- X Origin {m}
  9.2959,                                 !- Y Origin {m}
  0,                                      !- Z Origin {m}
  {15d426bd-0c93-4976-94f1-bc047f2aa0a7}, !- Building Story Name
  {81a4e0a8-4bed-4cd2-a903-0021ebe55600}, !- Thermal Zone Name
  Yes,                                    !- Part of Total Floor Area
  {bd11c7cc-14b8-4407-b6fe-a6b84f004c8e}; !- Design Specification Outdoor Air Object Name

OS:ThermostatSetpoint:DualSetpoint,
  {57f8b78e-3e16-4e17-ba14-0b46779244b8}, !- Handle
  {7c0fee29-0fc9-4373-a9ee-d8483b54491d}, !- Name
  {d89e7f39-f74b-4ae2-8621-0a5b05262f7d}, !- Heating Setpoint Temperature Schedule Name
  {c64f6e5c-2875-4b9a-b79c-7aafbb26f2b4}; !- Cooling Setpoint Temperature Schedule Name

OS:Schedule:Compact,
  {b47c4512-b4a2-4c13-baa4-6390ece66962}, !- Handle
  INFIL_SCH,                              !- Name
  {35160784-eee1-4b4f-bdcd-5a104e17a136}, !- Schedule Type Limits Name
  Through: 12/31,                         !- Field 1
  For: AllDays,                           !- Field 2
  Until: 24:00,                           !- Field 3
  1;                                      !- Field 4

OS:ElectricEquipment:Definition,
  {7b53101d-57c1-427b-bd6a-2d27b51987aa}, !- Handle
  G N2 Apartment_PlugMisc_Equip Definition, !- Name
  Watts/Area,                             !- Design Level Calculation Method
  ,                                       !- Design Level {W}
  5.38,                                   !- Watts per Space Floor Area {W/m2}
  ,                                       !- Watts per Person {W/person}
  0,                                      !- Fraction Latent
  0.5,                                    !- Fraction Radiant
  0;                                      !- Fraction Lost

OS:ElectricEquipment,
  {cc2e894f-d1c0-4d4b-88b6-bf6e5000c535}, !- Handle
  G N2 Apartment_PlugMisc_Equip,          !- Name
  {7b53101d-57c1-427b-bd6a-2d27b51987aa}, !- Electric Equipment Definition Name
  {4042c069-f70e-40be-b563-deb3ce1d4586}, !- Space or SpaceType Name
  {dea31965-2b78-4ce5-8965-5b7742c092d0}, !- Schedule Name
  ,                                       !- Multiplier
  General;                                !- End-Use Subcategory

OS:Space,
  {4042c069-f70e-40be-b563-deb3ce1d4586}, !- Handle
  G N2 Apartment,                         !- Name
  {4a55773f-8829-4bf8-a0dc-1d88a3e64d11}, !- Space Type Name
  ,                                       !- Default Construction Set Name
  ,                                       !- Default Schedule Set Name
  0,                                      !- Direction of Relative North {deg}
  23.1637,                                !- X Origin {m}
  9.2959,                                 !- Y Origin {m}
  0,                                      !- Z Origin {m}
  {15d426bd-0c93-4976-94f1-bc047f2aa0a7}, !- Building Story Name
  {81a4e0a8-4bed-4cd2-a903-0021ebe55600}, !- Thermal Zone Name
  Yes,                                    !- Part of Total Floor Area
  {a2de71bb-4d31-450a-a8b1-ad082e56db43}; !- Design Specification Outdoor Air Object Name

OS:ThermostatSetpoint:DualSetpoint,
  {f6314022-b53b-448e-99a4-c4a046a38114}, !- Handle
  {c0d1f37f-1705-4820-9cec-b615fbb63543}, !- Name
  {d89e7f39-f74b-4ae2-8621-0a5b05262f7d}, !- Heating Setpoint Temperature Schedule Name
  {c64f6e5c-2875-4b9a-b79c-7aafbb26f2b4}; !- Cooling Setpoint Temperature Schedule Name

OS:ThermostatSetpoint:DualSetpoint,
  {4264413a-0229-4e1f-b720-ea810e6c8c51}, !- Handle
  {11600836-c75e-4137-89df-ad1402fc0b8b}, !- Name
  {d89e7f39-f74b-4ae2-8621-0a5b05262f7d}, !- Heating Setpoint Temperature Schedule Name
  {c64f6e5c-2875-4b9a-b79c-7aafbb26f2b4}; !- Cooling Setpoint Temperature Schedule Name

OS:SpaceInfiltration:DesignFlowRate,
  {16f90697-9062-4d9a-bc89-a6655f182601}, !- Handle
  G SW Apartment_Infiltration,            !- Name
  {d54a0112-746f-43b8-a280-91776781bc98}, !- Space or SpaceType Name
  {b47c4512-b4a2-4c13-baa4-6390ece66962}, !- Schedule Name
  Flow/ExteriorArea,                      !- Design Flow Rate Calculation Method
  ,                                       !- Design Flow Rate {m3/s}
  ,                                       !- Flow per Space Floor Area {m3/s-m2}
  0.000302,                               !- Flow per Exterior Surface Area {m3/s-m2}
  ,                                       !- Air Changes per Hour {1/hr}
  1,                                      !- Constant Term Coefficient
  0,                                      !- Temperature Term Coefficient
  0,                                      !- Velocity Term Coefficient
  0;                                      !- Velocity Squared Term Coefficient

OS:Space,
  {d54a0112-746f-43b8-a280-91776781bc98}, !- Handle
  G SW Apartment,                         !- Name
  {4a55773f-8829-4bf8-a0dc-1d88a3e64d11}, !- Space Type Name
  ,                                       !- Default Construction Set Name
  ,                                       !- Default Schedule Set Name
  0,                                      !- Direction of Relative North {deg}
  0,                                      !- X Origin {m}
  0,                                      !- Y Origin {m}
  0,                                      !- Z Origin {m}
  {15d426bd-0c93-4976-94f1-bc047f2aa0a7}, !- Building Story Name
  {15a50967-6db3-4843-b26d-eb0583f76938}, !- Thermal Zone Name
  Yes,                                    !- Part of Total Floor Area
  {49c6c07c-f76c-4539-adea-d5bcb9dfa953}; !- Design Specification Outdoor Air Object Name

OS:ThermostatSetpoint:DualSetpoint,
  {188b594a-9b7d-44a0-b0fa-a5c73eb092e2}, !- Handle
  {0fd8df2b-880a-42c3-b773-6889a996838d}, !- Name
  {d89e7f39-f74b-4ae2-8621-0a5b05262f7d}, !- Heating Setpoint Temperature Schedule Name
  {c64f6e5c-2875-4b9a-b79c-7aafbb26f2b4}; !- Cooling Setpoint Temperature Schedule Name

OS:Surface,
  {fcefd6c9-6593-41dd-a013-5f88813430b7}, !- Handle
  g Ceilin SWA,                           !- Name
  RoofCeiling,                            !- Surface Type
  {e8747c00-7dea-4224-a40d-438194379a39}, !- Construction Name
  {d54a0112-746f-43b8-a280-91776781bc98}, !- Space Name
  Adiabatic,                              !- Outside Boundary Condition
  ,                                       !- Outside Boundary Condition Object
  NoSun,                                  !- Sun Exposure
  NoWind,                                 !- Wind Exposure
  ,                                       !- View Factor to Ground
  ,                                       !- Number of Vertices
  11.5818, 0, 3.0478,                     !- X,Y,Z Vertex 1 {m}
  11.5818, 7.6196, 3.0478,                !- X,Y,Z Vertex 2 {m}
  0, 7.6196, 3.0478,                      !- X,Y,Z Vertex 3 {m}
  0, 0, 3.0478;                           !- X,Y,Z Vertex 4 {m}

OS:Construction,
  {e8747c00-7dea-4224-a40d-438194379a39}, !- Handle
  INT-FLOOR-UNDERSIDE,                    !- Name
  ,                                       !- Surface Rendering Name
  {2ff4ba2c-de07-4e82-82df-6d4f85615a12}, !- Layer 1
  {84a0503e-dd9d-47b0-b138-d791fcb4b4b4}; !- Layer 2

OS:Lights:Definition,
  {fe1ca6a1-0df6-4e40-ac55-10f9c38b7d77}, !- Handle
  G N1 Apartment_Lights Definition,       !- Name
  Watts/Area,                             !- Design Level Calculation Method
  ,                                       !- Lighting Level {W}
  3.88,                                   !- Watts per Space Floor Area {W/m2}
  ,                                       !- Watts per Person {W/person}
  0.7,                                    !- Fraction Radiant
  0.2,                                    !- Fraction Visible
  0,                                      !- Return Air Fraction
  No;                                     !- Return Air Fraction Calculated from Plenum Temperature

OS:Lights,
  {c8c177f8-2be3-4c9f-816a-a06ee49f4709}, !- Handle
  G N1 Apartment_Lights,                  !- Name
  {fe1ca6a1-0df6-4e40-ac55-10f9c38b7d77}, !- Lights Definition Name
  {6d83229f-d3fe-4b38-a337-da2f9a3b5601}, !- Space or SpaceType Name
  {4b318ac3-3914-4bde-b92b-f50b44ac1b69}, !- Schedule Name
  1,                                      !- Fraction Replaceable
  ,                                       !- Multiplier
  General;                                !- End-Use Subcategory

OS:Space,
  {6d83229f-d3fe-4b38-a337-da2f9a3b5601}, !- Handle
  G N1 Apartment,                         !- Name
  {4a55773f-8829-4bf8-a0dc-1d88a3e64d11}, !- Space Type Name
  ,                                       !- Default Construction Set Name
  ,                                       !- Default Schedule Set Name
  0,                                      !- Direction of Relative North {deg}
  11.5818,                                !- X Origin {m}
  9.2959,                                 !- Y Origin {m}
  0,                                      !- Z Origin {m}
  {15d426bd-0c93-4976-94f1-bc047f2aa0a7}, !- Building Story Name
  {81a4e0a8-4bed-4cd2-a903-0021ebe55600}, !- Thermal Zone Name
  Yes,                                    !- Part of Total Floor Area
  {224b3553-0ac6-4e21-b760-0e068516d61b}; !- Design Specification Outdoor Air Object Name

OS:ThermostatSetpoint:DualSetpoint,
  {cadaefe7-8ef8-4618-8713-32a167e15ca5}, !- Handle
  {c33840f2-7918-4473-a2de-6c9ef6b4d3c6}, !- Name
  {d89e7f39-f74b-4ae2-8621-0a5b05262f7d}, !- Heating Setpoint Temperature Schedule Name
  {c64f6e5c-2875-4b9a-b79c-7aafbb26f2b4}; !- Cooling Setpoint Temperature Schedule Name

OS:ThermostatSetpoint:DualSetpoint,
  {b5333c4b-f9d1-43e2-b53d-4da8a4b56424}, !- Handle
  {e00c7fe8-8c39-4293-be93-8c51852865b3}, !- Name