
OS:Version,
  {95abbf1e-8ed7-43d5-a5ff-b985ff6c97e7}, !- Handle
  1.8.5;                                  !- Version Identifier

OS:Site,
  {1d2e945a-e831-466b-8230-a15343cd7830}, !- Handle
  USA IL-CHICAGO-OHARE,                   !- Name
  41.77,                                  !- Latitude {deg}
  -87.75,                                 !- Longitude {deg}
  -6,                                     !- Time Zone {hr}
  190,                                    !- Elevation {m}
  City;                                   !- Terrain

OS:SimulationControl,
  {0ce286de-e391-4548-b280-073b4f94774c}, !- Handle
  Yes,                                    !- Do Zone Sizing Calculation
  Yes,                                    !- Do System Sizing Calculation
  Yes,                                    !- Do Plant Sizing Calculation
  No,                                     !- Run Simulation for Sizing Periods
  Yes,                                    !- Run Simulation for Weather File Run Periods
  0.04,                                   !- Loads Convergence Tolerance Value
  0.2,                                    !- Temperature Convergence Tolerance Value {deltaC}
  FullInteriorAndExterior,                !- Solar Distribution
  25,                                     !- Maximum Number of Warmup Days
  6;                                      !- Minimum Number of Warmup Days

OS:Meter,
  {11a0ee67-d2d3-413b-961b-990eaa492e40}, !- Handle
  ExteriorLights:Electricity,             !- Name
  hourly,                                 !- Reporting Frequency
  False,                                  !- Meter File Only
  False;                                  !- Cumulative

OS:Construction,
  {914c8dd9-c453-44e4-80b4-90136f6006ef}, !- Handle
  INT-FLOOR-TOPSIDE,                      !- Name
  ,                                       !- Surface Rendering Name
  {979eeee4-5aa7-4f38-baf6-fd6ab5c8bc53}, !- Layer 1
  {04bb8cd1-bd4d-439b-9bdc-8545c5f4bd9c}; !- Layer 2

OS:Material,
  {979eeee4-5aa7-4f38-baf6-fd6ab5c8bc53}, !- Handle
  MAT-CC05 4 HW CONCRETE,                 !- Name
  Rough,                                  !- Roughness
  0.1016,                                 !- Thickness {m}
  1.311,                                  !- Conductivity {W/m-K}
  2240,                                   !- Density {kg/m3}
  836.8,                                  !- Specific Heat {J/kg-K}
  0.9,                                    !- Thermal Absorptance
  0.7,                                    !- Solar Absorptance
  0.7;                                    !- Visible Absorptance

OS:Material:NoMass,
  {04bb8cd1-bd4d-439b-9bdc-8545c5f4bd9c}, !- Handle
  CP02 CARPET PAD,                        !- Name
  VeryRough,                              !- Roughness
  0.2165,                                 !- Thermal Resistance {m2-K/W}
  0.9,                                    !- Thermal Absorptance
  0.7,                                    !- Solar Absorptance
  0.8;                                    !- Visible Absorptance

OS:People:Definition,
  {0c0eeadb-a655-4cc6-a275-681e410db220}, !- Handle
  G N2 Apartment People Definition,       !- Name
  People,                                 !- Number of People Calculation Method
  2.5,                                    !- Number of People {people}
  ,                                       !- People per Space Floor Area {person/m2}
  ,                                       !- Space Floor Area per Person {m2/person}
  0.3,                                    !- Fraction Radiant
  ,                                       !- Sensible Heat Fraction
  ,                                       !- Carbon Dioxide Generation Rate {m3/s-W}
  No,                                     !- Enable ASHRAE 55 Comfort Warnings
  ZoneAveraged;                           !- Mean Radiant Temperature Calculation Type

OS:People,
  {cd6a75c2-3ebf-4f75-adfb-20c6192a1eb9}, !- Handle
  G N2 Apartment People,                  !- Name
  {0c0eeadb-a655-4cc6-a275-681e410db220}, !- People Definition Name
  {0a94ce31-d65f-4822-a98c-804b29045530}, !- Space or SpaceType Name
  {5f0a93ca-bf36-4bee-8fd5-9ee9f566b9e5}, !- Number of People Schedule Name
  {55a6a829-2506-4266-9cd4-7cd80d30f2ce}, !- Activity Level Schedule Name
  ,                                       !- Surface Name/Angle Factor List Name
  {13e8fe28-c34f-47af-bf32-ab3ef50deba7}; !- Work Efficiency Schedule Name

OS:Space,
  {0a94ce31-d65f-4822-a98c-804b29045530}, !- Handle
  G N2 Apartment,                         !- Name
  {0533d230-ba77-4f10-a9d2-56d863902043}, !- Space Type Name
  ,                                       !- Default Construction Set Name
  ,                                       !- Default Schedule Set Name
  0,                                      !- Direction of Relative North {deg}
  23.1637,                                !- X Origin {m}
  9.2959,                                 !- Y Origin {m}
  0,                                      !- Z Origin {m}
  {402d096c-0abf-4bd9-84d9-7b775c396ec5}, !- Building Story Name
  {52d87d62-4fde-42e0-b760-cffba2540fbd}, !- Thermal Zone Name
  Yes,                                    !- Part of Total Floor Area
  {7f65221e-d819-4963-8ca6-5f474dd3e16e}; !- Design Specification Outdoor Air Object Name

OS:Schedule:Compact,
  {82857f42-e8e6-480e-973a-dced8ab92913}, !- Handle
  APT_HTGSETP_SCH,                        !- Name
  {84453893-87f0-4c41-b90c-0b5aef52f5de}, !- Schedule Type Limits Name
  THROUGH: 12/31,                         !- Field 1
  FOR:AllDays,                            !- Field 2
  UNTIL: 24:00,                           !- Field 3
  21.1;                                   !- Field 4

OS:ScheduleTypeLimits,
  {84453893-87f0-4c41-b90c-0b5aef52f5de}, !- Handle
  Temperature,                            !- Name
  -60,                                    !- Lower Limit Value {BasedOnField A4}
  200,                                    !- Upper Limit Value {BasedOnField A4}
  CONTINUOUS,                             !- Numeric Type
  Temperature;                            !- Unit Type

OS:Schedule:Compact,
  {9a1a78d9-9590-4553-ad9f-8ad15472d000}, !- Handle
  APT_CLGSETP_SCH,                        !- Name
  {84453893-87f0-4c41-b90c-0b5aef52f5de}, !- Schedule Type Limits Name
  THROUGH: 12/31,                         !- Field 1
  FOR:AllDays,                            !- Field 2
  UNTIL: 24:00,                           !- Field 3
  23.9;                                   !- Field 4

OS:Schedule:Compact,
  {5f0a93ca-bf36-4bee-8fd5-9ee9f566b9e5}, !- Handle
  APT_OCC_SCH,                            !- Name
  {45605101-7a4d-45e9-b9a6-484f184660fe}, !- Schedule Type Limits Name
  Through: 12/31,                         !- Field 1
  For: AllDays,                           !- Field 2
  Until: 7:00,                            !- Field 3
  1.0,                                    !- Field 4
  Until: 8:00,                            !- Field 5
  0.85,                                   !- Field 6
  Until: 9:00,                            !- Field 7
  0.39,                                   !- Field 8
  Until: 16:00,                           !- Field 9
  0.25,                                   !- Field 10
  Until: 17:00,                           !- Field 11
  0.3,                                    !- Field 12
  Until: 18:00,                           !- Field 13
  0.52,                                   !- Field 14
  Until: 21:00,                           !- Field 15
  0.87,                                   !- Field 16
  Until: 24:00,                           !- Field 17
  1.0;                                    !- Field 18

OS:ScheduleTypeLimits,
  {45605101-7a4d-45e9-b9a6-484f184660fe}, !- Handle
  Fraction,                               !- Name
  0,                                      !- Lower Limit Value {BasedOnField A4}
  1,                                      !- Upper Limit Value {BasedOnField A4}
  CONTINUOUS;                             !- Numeric Type

OS:Schedule:Compact,
  {55a6a829-2506-4266-9cd4-7cd80d30f2ce}, !- Handle
  ACTIVITY_SCH,                           !- Name
  {62f58a19-a35a-4758-8b44-bd9297159c3b}, !- Schedule Type Limits Name
  Through: 12/31,                         !- Field 1
  For: AllDays,                           !- Field 2
  Until: 24:00,                           !- Field 3
  120;                                    !- Field 4

OS:ScheduleTypeLimits,
  {4d52382c-f9e8-4a7d-9abf-99ceaaa44ed4}, !- Handle
  {5c721763-4bef-4907-97c5-7843def2eae4}; !- Name

OS:ScheduleTypeLimits,
  {62f58a19-a35a-4758-8b44-bd9297159c3b}, !- Handle
  ActivityLevel,                          !- Name
  0,                                      !- Lower Limit Value {BasedOnField A4}
  ,                                       !- Upper Limit Value {BasedOnField A4}
  Continuous,                             !- Numeric Type
  ActivityLevel;                          !- Unit Type

OS:Schedule:Compact,
  {13e8fe28-c34f-47af-bf32-ab3ef50deba7}, !- Handle
  WORK_EFF_SCH,                           !- Name
  {45605101-7a4d-45e9-b9a6-484f184660fe}, !- Schedule Type Limits Name
  Through: 12/31,                         !- Field 1
  For: AllDays,                           !- Field 2
  Until: 24:00,                           !- Field 3
  0.0;                                    !- Field 4

OS:Surface,
  {7f2b35b8-0865-4bab-8c50-8838502c1617}, !- Handle
  t WWall NWA,                            !- Name
  Wall,                                   !- Surface Type
  {ecd843b9-bb26-4a44-b20a-2b654f007c67}, !- Construction Name
  {5c41fa37-ef40-4653-8b52-372722ab00fb}, !- Space Name
  Outdoors,                               !- Outside Boundary Condition
  ,                                       !- Outside Boundary Condition Object
  SunExposed,                             !- Sun Exposure
  WindExposed,                            !- Wind Exposure
  ,                                       !- View Factor to Ground
  ,                                       !- Number of Vertices
  0, 7.6196, 3.0478,                      !- X,Y,Z Vertex 1 {m}
  0, 7.6196, 0,                           !- X,Y,Z Vertex 2 {m}
  0, 0, 0,                                !- X,Y,Z Vertex 3 {m}
  0, 0, 3.0478;                           !- X,Y,Z Vertex 4 {m}

OS:Construction,
  {ecd843b9-bb26-4a44-b20a-2b654f007c67}, !- Handle
  Steel Frame Res Ext Wall,               !- Name
  ,                                       !- Surface Rendering Name
  {5e140283-2623-4936-ba57-4c1545e586d0}, !- Layer 1
  {e23c3ceb-0a14-4e25-97ed-56737b29521a}, !- Layer 2
  {8d569342-398e-4c71-a6d3-3727ef81c90b}; !- Layer 3

OS:Material,
  {5e140283-2623-4936-ba57-4c1545e586d0}, !- Handle
  Wood Siding,                            !- Name
  MediumSmooth,                           !- Roughness
  0.01,                                   !- Thickness {m}
  0.11,                                   !- Conductivity {W/m-K}
  544.62,                                 !- Density {kg/m3}
  1210,                                   !- Specific Heat {J/kg-K}
  0.9,                                    !- Thermal Absorptance
  0.78,                                   !- Solar Absorptance
  0.78;                                   !- Visible Absorptance

OS:Material,
  {e23c3ceb-0a14-4e25-97ed-56737b29521a}, !- Handle
  Steel Frame Res Wall Insulation,        !- Name
  MediumRough,                            !- Roughness
  0.119161363096001,                      !- Thickness {m}
  0.049,                                  !- Conductivity {W/m-K}
  265,                                    !- Density {kg/m3}
  836.8,                                  !- Specific Heat {J/kg-K}
  0.9,                                    !- Thermal Absorptance
  0.7,                                    !- Solar Absorptance
  0.7;                                    !- Visible Absorptance

OS:Material,
  {8d569342-398e-4c71-a6d3-3727ef81c90b}, !- Handle
  1/2IN Gypsum,                           !- Name
  Smooth,                                 !- Roughness
  0.0127,                                 !- Thickness {m}
  0.16,                                   !- Conductivity {W/m-K}
  784.9,                                  !- Density {kg/m3}
  830,                                    !- Specific Heat {J/kg-K}
  0.9,                                    !- Thermal Absorptance
  0.92,                                   !- Solar Absorptance
  0.92;                                   !- Visible Absorptance

OS:Space,
  {5c41fa37-ef40-4653-8b52-372722ab00fb}, !- Handle
  T NW Apartment,                         !- Name
  {0533d230-ba77-4f10-a9d2-56d863902043}, !- Space Type Name
  ,                                       !- Default Construction Set Name
  ,                                       !- Default Schedule Set Name
  0,                                      !- Direction of Relative North {deg}
  0,                                      !- X Origin {m}
  9.2959,                                 !- Y Origin {m}
  9.1435,                                 !- Z Origin {m}
  {91abcb58-ae5a-4941-b25d-a45946c9423b}, !- Building Story Name
  {8c8bf912-4ed5-4af6-92e8-8faf2b14b1a5}, !- Thermal Zone Name
  Yes,                                    !- Part of Total Floor Area
  {074a9de1-aa10-4e00-9fd6-30cfc10ac83f}; !- Design Specification Outdoor Air Object Name

OS:Curve:Quadratic,
  {f0888d66-86f8-4b3c-ae5c-49b3458b307d}, !- Handle
  Cool-PLF-fPLR,                          !- Name
  0.90949556,                             !- Coefficient1 Constant
  0.09864773,                             !- Coefficient2 x
  -0.00819488,                            !- Coefficient3 x**2
  0,                                      !- Minimum Value of x {BasedOnField A2}
  1,                                      !- Maximum Value of x {BasedOnField A2}
  0.7,                                    !- Minimum Curve Output {BasedOnField A3}
  1;                                      !- Maximum Curve Output {BasedOnField A3}

OS:Surface,
  {06bd4e68-09be-46ed-9ea5-825165e48b9b}, !- Handle
  m WWall N2A,                            !- Name
  Wall,                                   !- Surface Type
  {614a065c-7c61-42ee-83a6-a7f0f9530347}, !- Construction Name
  {a6befcd4-6cf6-433a-8a36-30ff4e3e979f}, !- Space Name
  Surface,                                !- Outside Boundary Condition
  {41106339-725a-4451-a955-292a4112e537}, !- Outside Boundary Condition Object
  NoSun,                                  !- Sun Exposure
  NoWind,                                 !- Wind Exposure
  ,                                       !- View Factor to Ground
  ,                                       !- Number of Vertices
  0, 7.6196, 3.0478,                      !- X,Y,Z Vertex 1 {m}
  0, 7.6196, 0,                           !- X,Y,Z Vertex 2 {m}
  0, 0, 0,                                !- X,Y,Z Vertex 3 {m}
  0, 0, 3.0478;                           !- X,Y,Z Vertex 4 {m}

OS:Construction,
  {614a065c-7c61-42ee-83a6-a7f0f9530347}, !- Handle
  int-walls,                              !- Name
  ,                                       !- Surface Rendering Name
  {8d569342-398e-4c71-a6d3-3727ef81c90b}, !- Layer 1
  {8d569342-398e-4c71-a6d3-3727ef81c90b}; !- Layer 2

OS:Space,
  {a6befcd4-6cf6-433a-8a36-30ff4e3e979f}, !- Handle
  M N2 Apartment,                         !- Name
  {0533d230-ba77-4f10-a9d2-56d863902043}, !- Space Type Name
  ,                                       !- Default Construction Set Name
  ,                                       !- Default Schedule Set Name
  0,                                      !- Direction of Relative North {deg}
  23.1637,                                !- X Origin {m}
  9.2959,                                 !- Y Origin {m}
  3.0478,                                 !- Z Origin {m}
  {1d358082-5c67-4434-9b9c-a485aaec886d}, !- Building Story Name
  {fec053fd-f472-4383-8fcd-ea19c39a63a7}, !- Thermal Zone Name
  Yes,                                    !- Part of Total Floor Area
  {2d03b7f5-0fea-4dbc-8324-c28e2a91d3e8}; !- Design Specification Outdoor Air Object Name

OS:Surface,
  {46d9e404-9833-48a9-a53d-7fa1bae2678c}, !- Handle
  m GFloor S2A,                           !- Name
  Floor,                                  !- Surface Type
  {914c8dd9-c453-44e4-80b4-90136f6006ef}, !- Construction Name
  {152a4a18-8c34-4e7e-b8c6-066f9fb78ac6}, !- Space Name
  Adiabatic,                              !- Outside Boundary Condition
  ,                                       !- Outside Boundary Condition Object
  NoSun,                                  !- Sun Exposure
  NoWind,                                 !- Wind Exposure
  ,                                       !- View Factor to Ground
  ,                                       !- Number of Vertices
  11.5818, 7.6196, 0,                     !- X,Y,Z Vertex 1 {m}
  11.5818, 0, 0,                          !- X,Y,Z Vertex 2 {m}
  0, 0, 0,                                !- X,Y,Z Vertex 3 {m}
  0, 7.6196, 0;                           !- X,Y,Z Vertex 4 {m}

OS:Space,
  {152a4a18-8c34-4e7e-b8c6-066f9fb78ac6}, !- Handle
  M S2 Apartment,                         !- Name
  {0533d230-ba77-4f10-a9d2-56d863902043}, !- Space Type Name
  ,                                       !- Default Construction Set Name
  ,                                       !- Default Schedule Set Name
  0,                                      !- Direction of Relative North {deg}
  23.1637,                                !- X Origin {m}
  0,                                      !- Y Origin {m}
  3.0478,                                 !- Z Origin {m}
  {1d358082-5c67-4434-9b9c-a485aaec886d}, !- Building Story Name
  {3bba3145-eede-4eb7-bf57-bf61102f82f8}, !- Thermal Zone Name
  Yes,                                    !- Part of Total Floor Area
  {80caf937-dbaa-4931-99e9-49832563ffae}; !- Design Specification Outdoor Air Object Name

OS:Space,
  {9ecf7617-b3e2-4a1b-a08a-7bc500eb80a6}, !- Handle
  T SE Apartment,                         !- Name
  {0533d230-ba77-4f10-a9d2-56d863902043}, !- Space Type Name
  ,                                       !- Default Construction Set Name
  ,                                       !- Default Schedule Set Name
  0,                                      !- Direction of Relative North {deg}
  34.7455,                                !- X Origin {m}
  0,                                      !- Y Origin {m}
  9.1435,                                 !- Z Origin {m}
  {91abcb58-ae5a-4941-b25d-a45946c9423b}, !- Building Story Name
  {5fdef3d5-db8a-4239-8273-72cd69517519}, !- Thermal Zone Name
  Yes,                                    !- Part of Total Floor Area
  {dd34d109-c4cf-457f-bef5-ed4ab1c48912}; !- Design Specification Outdoor Air Object Name

OS:DesignSpecification:OutdoorAir,
  {dd34d109-c4cf-457f-bef5-ed4ab1c48912}, !- Handle
  SZ DSOA T SE Apartment,                 !- Name
  ,                                       !- Outdoor Air Method
  ,                                       !- Outdoor Air Flow per Person {m3/s-person}
  ,                                       !- Outdoor Air Flow per Floor Area {m3/s-m2}
  0.04248,                                !- Outdoor Air Flow Rate {m3/s}
  ,                                       !- Outdoor Air Flow Air Changes per Hour {1/hr}
  ;                                       !- Outdoor Air Flow Rate Fraction Schedule Name

OS:Surface,
  {35b68641-64bd-42a8-a5c0-f8df3f552584}, !- Handle
  g NIWall S2A,                           !- Name
  Wall,                                   !- Surface Type
  {614a065c-7c61-42ee-83a6-a7f0f9530347}, !- Construction Name
  {a10543fb-a345-489d-9d16-064c4c44d858}, !- Space Name
  Surface,                                !- Outside Boundary Condition
  {3d0a74b5-d35e-433b-85a7-e4250b3e6e8d}, !- Outside Boundary Condition Object
  NoSun,                                  !- Sun Exposure
  NoWind,                                 !- Wind Exposure
  ,                                       !- View Factor to Ground
  ,                                       !- Number of Vertices
  11.5818, 7.6196, 3.0478,                !- X,Y,Z Vertex 1 {m}
  11.5818, 7.6196, 0,                     !- X,Y,Z Vertex 2 {m}
  0, 7.6196, 0,                           !- X,Y,Z Vertex 3 {m}
  0, 7.6196, 3.0478;                      !- X,Y,Z Vertex 4 {m}

OS:Space,
  {a10543fb-a345-489d-9d16-064c4c44d858}, !- Handle
  G S2 Apartment,                         !- Name
  {0533d230-ba77-4f10-a9d2-56d863902043}, !- Space Type Name
  ,                                       !- Default Construction Set Name
  ,                                       !- Default Schedule Set Name
  0,                                      !- Direction of Relative North {deg}
  23.1637,                                !- X Origin {m}
  0,                                      !- Y Origin {m}
  0,                                      !- Z Origin {m}
  {402d096c-0abf-4bd9-84d9-7b775c396ec5}, !- Building Story Name
  {9a336906-9314-4b55-a00f-1452d6ef448e}, !- Thermal Zone Name
  Yes,                                    !- Part of Total Floor Area
  {0f0cf8aa-850a-4677-8f88-d11d3e768409}; !- Design Specification Outdoor Air Object Name

OS:Surface,
  {81b5f7d2-40d8-4aff-8325-00d41a6f636e}, !- Handle
  g GFloor SWA,                           !- Name
  Floor,                                  !- Surface Type
  {155d0df8-f662-48db-990a-0baca5d25139}, !- Construction Name
  {7c4820b7-5617-460f-a2e1-afb1c9cc4f19}, !- Space Name
  Ground,                                 !- Outside Boundary Condition
  ,                                       !- Outside Boundary Condition Object
  NoSun,                                  !- Sun Exposure
  NoWind,                                 !- Wind Exposure
  ,                                       !- View Factor to Ground
  ,                                       !- Number of Vertices
  11.5818, 7.6196, 0,                     !- X,Y,Z Vertex 1 {m}
  11.5818, 0, 0,                          !- X,Y,Z Vertex 2 {m}
  0, 0, 0,                                !- X,Y,Z Vertex 3 {m}
  0, 7.6196, 0;                           !- X,Y,Z Vertex 4 {m}

OS:Construction,
  {155d0df8-f662-48db-990a-0baca5d25139}, !- Handle
  ext-slab,                               !- Name
  ,                                       !- Surface Rendering Name
  {aab82588-aa25-4b0c-b294-9642b695f711}, !- Layer 1
  {04bb8cd1-bd4d-439b-9bdc-8545c5f4bd9c}; !- Layer 2

OS:Material,
  {aab82588-aa25-4b0c-b294-9642b695f711}, !- Handle
  HW CONCRETE,                            !- Name
  Rough,                                  !- Roughness
  0.1016,                                 !- Thickness {m}
  1.311,                                  !- Conductivity {W/m-K}
  2240,                                   !- Density {kg/m3}
  836.8,                                  !- Specific Heat {J/kg-K}
  0.9,                                    !- Thermal Absorptance
  0.7,                                    !- Solar Absorptance
  0.7;                                    !- Visible Absorptance

OS:Space,
  {7c4820b7-5617-460f-a2e1-afb1c9cc4f19}, !- Handle
  G SW Apartment,                         !- Name
  {0533d230-ba77-4f10-a9d2-56d863902043}, !- Space Type Name
  ,                                       !- Default Construction Set Name
  ,                                       !- Default Schedule Set Name
  0,                                      !- Direction of Relative North {deg}
  0,                                      !- X Origin {m}
  0,                                      !- Y Origin {m}
  0,                                      !- Z Origin {m}
  {402d096c-0abf-4bd9-84d9-7b775c396ec5}, !- Building Story Name
  {9a336906-9314-4b55-a00f-1452d6ef448e}, !- Thermal Zone Name
  Yes,                                    !- Part of Total Floor Area
  {8c59bfb7-dcd6-43cb-8d3a-39b030c86b82}; !- Design Specification Outdoor Air Object Name

OS:Lights:Definition,
  {f7e924ed-156e-4340-9b76-32ac9a0fcc3c}, !- Handle
  G S2 Apartment_Lights Definition,       !- Name
  Watts/Area,                             !- Design Level Calculation Method
  ,                                       !- Lighting Level {W}
  3.88,                                   !- Watts per Space Floor Area {W/m2}
  ,                                       !- Watts per Person {W/person}
  0.7,                                    !- Fraction Radiant
  0.2,                                    !- Fraction Visible
  0,                                      !- Return Air Fraction
  No;                                     !- Return Air Fraction Calculated from Plenum Temperature

OS:Lights,
  {64f63810-6ab2-489f-bd35-6f33c3b831c9}, !- Handle
  G S2 Apartment_Lights,                  !- Name
  {f7e924ed-156e-4340-9b76-32ac9a0fcc3c}, !- Lights Definition Name
  {a10543fb-a345-489d-9d16-064c4c44d858}, !- Space or SpaceType Name
  {96cb7bf2-1133-46f9-a162-4861e150fbfa}, !- Schedule Name
  1,                                      !- Fraction Replaceable
  ,                                       !- Multiplier
  General;                                !- End-Use Subcategory

OS:Schedule:Compact,
  {96cb7bf2-1133-46f9-a162-4861e150fbfa}, !- Handle
  APT_LIGHT_SCH,                          !- Name
  {45605101-7a4d-45e9-b9a6-484f184660fe}, !- Schedule Type Limits Name
  Through: 12/31,                         !- Field 1
  For: AllDays,                           !- Field 2
  Until: 04:00,                           !- Field 3
  0.067,                                  !- Field 4
  Until: 05:00,                           !- Field 5
  0.187,                                  !- Field 6
  Until: 06:00,                           !- Field 7
  0.394,                                  !- Field 8
  Until: 07:00,                           !- Field 9
  0.440,                                  !- Field 10
  Until: 08:00,                           !- Field 11
  0.393,                                  !- Field 12
  Until: 09:00,                           !- Field 13
  0.172,                                  !- Field 14
  Until: 15:00,                           !- Field 15
  0.119,                                  !- Field 16
  Until: 16:00,                           !- Field 17
  0.206,                                  !- Field 18
  Until: 17:00,                           !- Field 19
  0.439,                                  !- Field 20
  Until: 18:00,                           !- Field 21
  0.616,                                  !- Field 22
  Until: 19:00,                           !- Field 23
  0.829,                                  !- Field 24
  Until: 20:00,                           !- Field 25
  0.986,                                  !- Field 26
  Until: 21:00,                           !- Field 27
  1.0,                                    !- Field 28
  Until: 22:00,                           !- Field 29
  0.692,                                  !- Field 30
  Until: 23:00,                           !- Field 31
  0.384,                                  !- Field 32
  Until: 24:00,                           !- Field 33
  0.160;                                  !- Field 34

OS:Surface,
  {ff84e138-39f5-4125-a7e9-3a838fe8ef0f}, !- Handle
  m EIWALL SWA,                           !- Name
  Wall,                                   !- Surface Type
  {614a065c-7c61-42ee-83a6-a7f0f9530347}, !- Construction Name
  {bebc5c6e-1d3a-4cdf-bdfe-a769b6dd9424}, !- Space Name
  Surface,                                !- Outside Boundary Condition
  {e1dd157c-30da-4910-9e3e-f3ae90d2ddb2}, !- Outside Boundary Condition Object
  NoSun,                                  !- Sun Exposure
  NoWind,                                 !- Wind Exposure
  ,                                       !- View Factor to Ground
  ,                                       !- Number of Vertices
  11.5818, 0, 3.0478,                     !- X,Y,Z Vertex 1 {m}
  11.5818, 0, 0,                          !- X,Y,Z Vertex 2 {m}
  11.5818, 7.6196, 0,                     !- X,Y,Z Vertex 3 {m}
  11.5818, 7.6196, 3.0478;                !- X,Y,Z Vertex 4 {m}

OS:Space,
  {bebc5c6e-1d3a-4cdf-bdfe-a769b6dd9424}, !- Handle
  M SW Apartment,                         !- Name
  {0533d230-ba77-4f10-a9d2-56d863902043}, !- Space Type Name
  ,                                       !- Default Construction Set Name
  ,                                       !- Default Schedule Set Name
  0,                                      !- Direction of Relative North {deg}
  0,                                      !- X Origin {m}
  0,                                      !- Y Origin {m}
  3.0478,                                 !- Z Origin {m}
  {1d358082-5c67-4434-9b9c-a485aaec886d}, !- Building Story Name
  {3bba3145-eede-4eb7-bf57-bf61102f82f8}, !- Thermal Zone Name
  Yes,                                    !- Part of Total Floor Area
  {6cfcffc2-e07b-438e-9b00-0caa9baef261}; !- Design Specification Outdoor Air Object Name

OS:Surface,
  {9ada9e0d-2c72-426e-bb3c-ea26ae4fb0da}, !- Handle
  g EWall SEA,                            !- Name
  Wall,                                   !- Surface Type
  {ecd843b9-bb26-4a44-b20a-2b654f007c67}, !- Construction Name
  {76ec94bf-86ac-432a-b415-ecceb68bd6d0}, !- Space Name
  Outdoors,                               !- Outside Boundary Condition
  ,                                       !- Outside Boundary Condition Object
  SunExposed,                             !- Sun Exposure
  WindExposed,                            !- Wind Exposure
  ,                                       !- View Factor to Ground
  ,                                       !- Number of Vertices
  11.5818, 0, 3.0478,                     !- X,Y,Z Vertex 1 {m}
  11.5818, 0, 0,                          !- X,Y,Z Vertex 2 {m}
  11.5818, 7.6196, 0,                     !- X,Y,Z Vertex 3 {m}
  11.5818, 7.6196, 3.0478;                !- X,Y,Z Vertex 4 {m}

OS:Space,
  {76ec94bf-86ac-432a-b415-ecceb68bd6d0}, !- Handle