
OS:Version,
  {aeda343d-52d0-4f62-8603-18d36cf13079}, !- Handle
  1.8.5;                                  !- Version Identifier

OS:Site,
  {5700b8c0-5103-488d-86a0-1b761ee31e63}, !- Handle
  USA IL-CHICAGO-OHARE,                   !- Name
  41.77,                                  !- Latitude {deg}
  -87.75,                                 !- Longitude {deg}
  -6,                                     !- Time Zone {hr}
  190,                                    !- Elevation {m}
  City;                                   !- Terrain

OS:SimulationControl,
  {9ff7d374-8662-4a32-b36a-31d1f4059046}, !- Handle
  Yes,                                    !- Do Zone Sizing Calculation
  Yes,                                    !- Do System Sizing Calculation
  Yes,                                    !- Do Plant Sizing Calculation
  No,                                     !- Run Simulation for Sizing Periods
  Yes,                                    !- Run Simulation for Weather File Run Periods
  0.04,                                   !- Loads Convergence Tolerance Value
  0.2,                                    !- Temperature Convergence Tolerance Value {deltaC}
  FullInteriorAndExterior,                !- Solar Distribution
  25,                                     !- Maximum Number of Warmup Days
  6;                                      !- Minimum Number of Warmup Days

OS:ConvergenceLimits,
  {5bec1aa0-787c-49c3-9c5c-603840760559}, !- Handle
  2,                                      !- Minimum System Timestep {minutes}
  25;                                     !- Maximum HVAC Iterations

OS:Meter,
  {9b250ed0-45df-49f0-add1-65b818c66f91}, !- Handle
  ExteriorLights:Electricity,             !- Name
  hourly,                                 !- Reporting Frequency
  False,                                  !- Meter File Only
  False;                                  !- Cumulative

OS:Material,
  {72c90853-299a-4205-8c5d-0b1d22d7bb35}, !- Handle
  Std AC02,                               !- Name
  MediumSmooth,                           !- Roughness
  0.0127,                                 !- Thickness {m}
  0.057,                                  !- Conductivity {W/m-K}
  288,                                    !- Density {kg/m3}
  1339,                                   !- Specific Heat {J/kg-K}
  0.9,                                    !- Thermal Absorptance
  0.7,                                    !- Solar Absorptance
  0.2;                                    !- Visible Absorptance

OS:Material,
  {42b46312-0725-4a47-beca-bf6ff6af31bd}, !- Handle
  Metal Roofing,                          !- Name
  MediumSmooth,                           !- Roughness
  0.0015,                                 !- Thickness {m}
  45.006,                                 !- Conductivity {W/m-K}
  7680,                                   !- Density {kg/m3}
  418.4,                                  !- Specific Heat {J/kg-K}
  0.9,                                    !- Thermal Absorptance
  0.7,                                    !- Solar Absorptance
  0.3;                                    !- Visible Absorptance

OS:Schedule:Compact,
  {bdc21f4e-105d-44ae-a95b-e236256c33ca}, !- Handle
  Kitchen Water Equipment Temp Sched,     !- Name
  {0ec8eba2-d5d7-436e-afbd-3627f979025f}, !- Schedule Type Limits Name
  Through: 12/31,                         !- Field 1
  For: AllDays,                           !- Field 2
  Until: 24:00,                           !- Field 3
  49.0;                                   !- Field 4

OS:ScheduleTypeLimits,
  {0ec8eba2-d5d7-436e-afbd-3627f979025f}, !- Handle
  Temperature,                            !- Name
  -60,                                    !- Lower Limit Value {BasedOnField A4}
  200,                                    !- Upper Limit Value {BasedOnField A4}
  CONTINUOUS,                             !- Numeric Type
  Temperature;                            !- Unit Type

OS:Schedule:Compact,
  {7df30ddf-f681-41bd-8a37-086ce9e4600e}, !- Handle
  Kitchen_Exhaust_SCH,                    !- Name
  {43fe33f2-3224-484a-9059-612a68cbd0bc}, !- Schedule Type Limits Name
  Through: 12/31,                         !- Field 1
  For: AllDays,                           !- Field 2
  Until: 01:00,                           !- Field 3
  1.0,                                    !- Field 4
  Until: 05:00,                           !- Field 5
  0.0,                                    !- Field 6
  Until: 24:00,                           !- Field 7
  1.0;                                    !- Field 8

OS:ScheduleTypeLimits,
  {43fe33f2-3224-484a-9059-612a68cbd0bc}, !- Handle
  On/Off,                                 !- Name
  0,                                      !- Lower Limit Value {BasedOnField A4}
  1,                                      !- Upper Limit Value {BasedOnField A4}
  DISCRETE,                               !- Numeric Type
  Availability;                           !- Unit Type

OS:Surface,
  {1a187d93-18ec-4a9d-ab8d-f3814f6e7c56}, !- Handle
  Kitchen_Wall_North,                     !- Name
  Wall,                                   !- Surface Type
  {7cda326a-f0c5-4fbc-ba40-0fcebbe13f2e}, !- Construction Name
  {d751c74a-75be-415a-bc46-4402a5eab48f}, !- Space Name
  Outdoors,                               !- Outside Boundary Condition
  ,                                       !- Outside Boundary Condition Object
  SunExposed,                             !- Sun Exposure
  WindExposed,                            !- Wind Exposure
  ,                                       !- View Factor to Ground
  ,                                       !- Number of Vertices
  15.2428, 15.2428, 3.0488,               !- X,Y,Z Vertex 1 {m}
  15.2428, 15.2428, 0,                    !- X,Y,Z Vertex 2 {m}
  0, 15.2428, 0,                          !- X,Y,Z Vertex 3 {m}
  0, 15.2428, 3.0488;                     !- X,Y,Z Vertex 4 {m}

OS:Construction,
  {7cda326a-f0c5-4fbc-ba40-0fcebbe13f2e}, !- Handle
  Wood Frame Non-res Ext Wall,            !- Name
  ,                                       !- Surface Rendering Name
  {41b374a7-594b-4057-870d-85e1ec6f565f}, !- Layer 1
  {1329571d-0b6a-4f58-84dd-241dbbf3c1dd}, !- Layer 2
  {87fba420-58ca-4298-b91b-9d136ad15f8b}; !- Layer 3

OS:Material,
  {41b374a7-594b-4057-870d-85e1ec6f565f}, !- Handle
  Wood Siding,                            !- Name
  MediumSmooth,                           !- Roughness
  0.01,                                   !- Thickness {m}
  0.11,                                   !- Conductivity {W/m-K}
  544.62,                                 !- Density {kg/m3}
  1210,                                   !- Specific Heat {J/kg-K}
  0.9,                                    !- Thermal Absorptance
  0.78,                                   !- Solar Absorptance
  0.78;                                   !- Visible Absorptance

OS:Material,
  {1329571d-0b6a-4f58-84dd-241dbbf3c1dd}, !- Handle
  Wood Frame NonRes Wall Insulation,      !- Name
  MediumRough,                            !- Roughness
  0.0812847864409827,                     !- Thickness {m}
  0.049,                                  !- Conductivity {W/m-K}
  265,                                    !- Density {kg/m3}
  836.8,                                  !- Specific Heat {J/kg-K}
  0.9,                                    !- Thermal Absorptance
  0.7,                                    !- Solar Absorptance
  0.7;                                    !- Visible Absorptance

OS:Material,
  {87fba420-58ca-4298-b91b-9d136ad15f8b}, !- Handle
  1/2IN Gypsum,                           !- Name
  Smooth,                                 !- Roughness
  0.0127,                                 !- Thickness {m}
  0.16,                                   !- Conductivity {W/m-K}
  784.9,                                  !- Density {kg/m3}
  830,                                    !- Specific Heat {J/kg-K}
  0.9,                                    !- Thermal Absorptance
  0.92,                                   !- Solar Absorptance
  0.92;                                   !- Visible Absorptance

OS:Space,
  {d751c74a-75be-415a-bc46-4402a5eab48f}, !- Handle
  Kitchen,                                !- Name
  {f5b88d74-24dc-4825-8068-4e8dc34a375a}, !- Space Type Name
  ,                                       !- Default Construction Set Name
  ,                                       !- Default Schedule Set Name
  0,                                      !- Direction of Relative North {deg}
  0,                                      !- X Origin {m}
  0,                                      !- Y Origin {m}
  0,                                      !- Z Origin {m}
  {5b812d3a-1591-47cd-98ce-e9e0a98b33d1}, !- Building Story Name
  {8c07b887-0415-4323-8afe-1f4b3e7d9df6}, !- Thermal Zone Name
  Yes,                                    !- Part of Total Floor Area
  {5ebf1440-dff8-4e26-ba3f-db973450174b}; !- Design Specification Outdoor Air Object Name

OS:Schedule:Compact,
  {08b598a9-c48b-4274-a497-5a2ee3f89e2f}, !- Handle
  HTGSETP_KITCHEN_SCH,                    !- Name
  {0ec8eba2-d5d7-436e-afbd-3627f979025f}, !- Schedule Type Limits Name
  Through: 12/31,                         !- Field 1
  For: SummerDesignDay,                   !- Field 2
  Until: 24:00,                           !- Field 3
  15.6,                                   !- Field 4
  For: WinterDesignDay,                   !- Field 5
  Until: 24:00,                           !- Field 6
  19,                                     !- Field 7
  For: AllOtherDays,                      !- Field 8
  Until: 01:00,                           !- Field 9
  19,                                     !- Field 10
  Until: 05:00,                           !- Field 11
  15.6,                                   !- Field 12
  Until: 24:00,                           !- Field 13
  19;                                     !- Field 14

OS:Schedule:Compact,
  {d1011c2f-94b9-4000-8a1f-3481c49437d7}, !- Handle
  CLGSETP_KITCHEN_SCH,                    !- Name
  {0ec8eba2-d5d7-436e-afbd-3627f979025f}, !- Schedule Type Limits Name
  Through: 12/31,                         !- Field 1
  For: WinterDesignDay,                   !- Field 2
  Until: 24:00,                           !- Field 3
  30,                                     !- Field 4
  For: AllOtherDays,                      !- Field 5
  Until: 01:00,                           !- Field 6
  26,                                     !- Field 7
  Until: 05:00,                           !- Field 8
  30,                                     !- Field 9
  Until: 24:00,                           !- Field 10
  26;                                     !- Field 11

OS:Construction,
  {c9bb88b5-6bb9-476c-9bd1-87a88b1aef38}, !- Handle
  Attic Non-res Floor,                    !- Name
  ,                                       !- Surface Rendering Name
  {87fba420-58ca-4298-b91b-9d136ad15f8b}, !- Layer 1
  {86fd0c8a-d97b-498d-bbfe-e0d224f56f61}, !- Layer 2
  {87fba420-58ca-4298-b91b-9d136ad15f8b}; !- Layer 3

OS:Material,
  {86fd0c8a-d97b-498d-bbfe-e0d224f56f61}, !- Handle
  AtticFloor NonRes Insulation,           !- Name
  MediumRough,                            !- Roughness
  0.236804989096202,                      !- Thickness {m}
  0.049,                                  !- Conductivity {W/m-K}
  265,                                    !- Density {kg/m3}
  836.8,                                  !- Specific Heat {J/kg-K}
  0.9,                                    !- Thermal Absorptance
  0.7,                                    !- Solar Absorptance
  0.7;                                    !- Visible Absorptance

OS:Meter,
  {f95c0986-f4aa-4fed-9324-1d42f6f67227}, !- Handle
  ExteriorEquipment:Electricity,          !- Name
  hourly,                                 !- Reporting Frequency
  False,                                  !- Meter File Only
  False;                                  !- Cumulative

OS:ShadowCalculation,
  {cac37f66-bd09-4c6a-b5b8-b16518d0c263}, !- Handle
  15000,                                  !- Calculation Frequency
  15000;                                  !- Maximum Figures in Shadow Overlap Calculations

OS:Curve:Biquadratic,
  {6936d638-a88f-41be-9720-cd9c610d46b9}, !- Handle
  Cool-Cap-fT,                            !- Name
  0.9712123,                              !- Coefficient1 Constant
  -0.015275502,                           !- Coefficient2 x
  0.0014434524,                           !- Coefficient3 x**2
  -0.00039321,                            !- Coefficient4 y
  -6.8364e-006,                           !- Coefficient5 y**2
  -0.0002905956,                          !- Coefficient6 x*y
  -100,                                   !- Minimum Value of x {BasedOnField A2}
  100,                                    !- Maximum Value of x {BasedOnField A2}
  -100,                                   !- Minimum Value of y {BasedOnField A3}
  100;                                    !- Maximum Value of y {BasedOnField A3}

OS:HeatBalanceAlgorithm,
  {22b2d630-44df-401d-b227-06a74f7f3bb6}, !- Handle
  ConductionTransferFunction,             !- Algorithm
  200;                                    !- Surface Temperature Upper Limit {C}

OS:Curve:Biquadratic,
  {8c6d38bc-9905-4bfa-b96b-9636b5f72eac}, !- Handle
  Measured_CoolCStandard10Ton_EIRFT,      !- Name
  0.9847,                                 !- Coefficient1 Constant
  -0.04285,                               !- Coefficient2 x
  0.0013562,                              !- Coefficient3 x**2
  0.009934,                               !- Coefficient4 y
  0.0006398,                              !- Coefficient5 y**2
  -0.001169,                              !- Coefficient6 x*y
  11.1,                                   !- Minimum Value of x {BasedOnField A2}
  29.4,                                   !- Maximum Value of x {BasedOnField A2}
  10,                                     !- Minimum Value of y {BasedOnField A3}
  50.3;                                   !- Maximum Value of y {BasedOnField A3}

OS:Schedule:Compact,
  {7589fa65-3216-45f1-9b5d-7a3263b7d1b9}, !- Handle
  HVACOperationSchd,                      !- Name
  {43fe33f2-3224-484a-9059-612a68cbd0bc}, !- Schedule Type Limits Name
  Through: 12/31,                         !- Field 1
  For: AllDays,                           !- Field 2
  Until: 01:00,                           !- Field 3
  1.0,                                    !- Field 4
  Until: 05:00,                           !- Field 5
  0.0,                                    !- Field 6
  Until: 24:00,                           !- Field 7
  1.0;                                    !- Field 8

OS:Surface,
  {cb13aee9-b4b0-4215-9165-86811412a4f5}, !- Handle
  south-roof,                             !- Name
  RoofCeiling,                            !- Surface Type
  {bdcd19fd-bfa2-4b34-b4d0-f392d4cdb642}, !- Construction Name
  {bfd0b747-735b-4d45-a204-36641bf6b6a3}, !- Space Name
  Outdoors,                               !- Outside Boundary Condition
  ,                                       !- Outside Boundary Condition Object
  SunExposed,                             !- Sun Exposure
  WindExposed,                            !- Wind Exposure
  ,                                       !- View Factor to Ground
  ,                                       !- Number of Vertices
  2.5405, 7.6214, 2.5405,                 !- X,Y,Z Vertex 1 {m}
  0, 0, 0,                                !- X,Y,Z Vertex 2 {m}
  15.2428, 0, 0,                          !- X,Y,Z Vertex 3 {m}
  12.7023, 7.6214, 2.5405;                !- X,Y,Z Vertex 4 {m}

OS:Construction,
  {bdcd19fd-bfa2-4b34-b4d0-f392d4cdb642}, !- Handle
  Attic Non-res Roof,                     !- Name
  ,                                       !- Surface Rendering Name
  {bbf3c53f-980a-456f-9929-d41952f715c9}, !- Layer 1
  {40ee1aae-a780-4705-a74f-478cdce844c1}; !- Layer 2

OS:Material,
  {bbf3c53f-980a-456f-9929-d41952f715c9}, !- Handle
  Roof Membrane,                          !- Name
  VeryRough,                              !- Roughness
  0.0095,                                 !- Thickness {m}
  0.16,                                   !- Conductivity {W/m-K}
  1121.29,                                !- Density {kg/m3}
  1460,                                   !- Specific Heat {J/kg-K}
  0.9,                                    !- Thermal Absorptance
  0.7,                                    !- Solar Absorptance
  0.7;                                    !- Visible Absorptance

OS:Material,
  {40ee1aae-a780-4705-a74f-478cdce844c1}, !- Handle
  Metal Decking,                          !- Name
  MediumSmooth,                           !- Roughness
  0.0015,                                 !- Thickness {m}
  45.006,                                 !- Conductivity {W/m-K}
  7680,                                   !- Density {kg/m3}
  418.4,                                  !- Specific Heat {J/kg-K}
  0.9,                                    !- Thermal Absorptance
  0.7,                                    !- Solar Absorptance
  0.3;                                    !- Visible Absorptance

OS:Space,
  {bfd0b747-735b-4d45-a204-36641bf6b6a3}, !- Handle
  attic,                                  !- Name
  {8d49846f-e96a-4947-8223-61de4e75c5a4}, !- Space Type Name
  ,                                       !- Default Construction Set Name
  ,                                       !- Default Schedule Set Name
  0,                                      !- Direction of Relative North {deg}
  0,                                      !- X Origin {m}
  0,                                      !- Y Origin {m}
  3.0488,                                 !- Z Origin {m}
  {0e845519-4efd-4880-a92e-382cbf9e2f1f}, !- Building Story Name
  ,                                       !- Thermal Zone Name
  No;                                     !- Part of Total Floor Area

OS:Meter,
  {d6e1e079-f7bf-442d-8d40-3347a45b536b}, !- Handle
  Gas:Facility,                           !- Name
  hourly,                                 !- Reporting Frequency
  False,                                  !- Meter File Only
  False;                                  !- Cumulative

OS:Surface,
  {9cc110b7-b009-4be2-a074-d98221c131ce}, !- Handle
  attic-floor-dining,                     !- Name
  Floor,                                  !- Surface Type
  {c9bb88b5-6bb9-476c-9bd1-87a88b1aef38}, !- Construction Name
  {bfd0b747-735b-4d45-a204-36641bf6b6a3}, !- Space Name
  Surface,                                !- Outside Boundary Condition
  {d392321f-23ac-411c-9573-a87f5bc5a9bb}, !- Outside Boundary Condition Object
  NoSun,                                  !- Sun Exposure
  NoWind,                                 !- Wind Exposure
  ,                                       !- View Factor to Ground
  ,                                       !- Number of Vertices
  15.2428, 7.6214, 0,                     !- X,Y,Z Vertex 1 {m}
  15.2428, 0, 0,                          !- X,Y,Z Vertex 2 {m}
  0, 0, 0,                                !- X,Y,Z Vertex 3 {m}
  0, 7.6214, 0;                           !- X,Y,Z Vertex 4 {m}

OS:Construction,
  {28f297ca-9d1a-44be-b0d5-c16623c25914}, !- Handle
  int-walls,                              !- Name
  ,                                       !- Surface Rendering Name
  {87fba420-58ca-4298-b91b-9d136ad15f8b}, !- Layer 1
  {87fba420-58ca-4298-b91b-9d136ad15f8b}; !- Layer 2

OS:Meter,
  {d136a778-fb63-498e-a88a-1b0f303c06cb}, !- Handle
  Heating:Electricity,                    !- Name
  hourly,                                 !- Reporting Frequency
  False,                                  !- Meter File Only
  False;                                  !- Cumulative

OS:Schedule:Compact,
  {36c6d7f2-bd83-404a-a679-423aa4c4d9e4}, !- Handle
  Kitchen Water Equipment Hot Supply Temp Sched, !- Name
  {0ec8eba2-d5d7-436e-afbd-3627f979025f}, !- Schedule Type Limits Name
  Through: 12/31,                         !- Field 1
  For: AllDays,                           !- Field 2
  Until: 24:00,                           !- Field 3
  49.0;                                   !- Field 4

OS:SizingPeriod:DesignDay,
  {02faf657-9cf5-4f0d-a43c-9a34592325c7}, !- Handle
  CHICAGO Ann Clg .4% Condns WB=>MDB,     !- Name
  31.2,                                   !- Maximum Dry-Bulb Temperature {C}
  10.7,                                   !- Daily Dry-Bulb Temperature Range {deltaC}
  25.5,                                   !- Humidity Indicating Conditions at Maximum Dry-Bulb {BasedOnField A3}
  99063,                                  !- Barometric Pressure {Pa}
  5.3,                                    !- Wind Speed {m/s}
  230,                                    !- Wind Direction {deg}
  1,                                      !- Sky Clearness
  0,                                      !- Rain Indicator
  0,                                      !- Snow Indicator
  21,                                     !- Day of Month
  7,                                      !- Month
  SummerDesignDay,                        !- Day Type
  0,                                      !- Daylight Saving Time Indicator
  Wetbulb,                                !- Humidity Indicating Type
  ,                                       !- Humidity Indicating Day Schedule Name
  ,                                       !- Dry-Bulb Temperature Range Modifier Type
  ,                                       !- Dry-Bulb Temperature Range Modifier Schedule Name
  ASHRAEClearSky;                         !- Solar Model Indicator

OS:Schedule:Compact,
  {47f4576e-a335-4d2b-b6ad-1c755438ddde}, !- Handle
  Kitchen_Case:1_WALKINFREEZER_CaseCreditReduxSched, !- Name
  {8f42e0de-6df1-43cf-ab1d-0580db9b6924}, !- Schedule Type Limits Name
  Through: 12/31,                         !- Field 1
  For:AllDays,                            !- Field 2
  Interpolate:No,                         !- Field 3
  Until: 7:00,                            !- Field 4
  0.2,                                    !- Field 5
  Until: 21:00,                           !- Field 6
  0.4,                                    !- Field 7
  Until: 24:00,                           !- Field 8
  0.2;                                    !- Field 9

OS:ScheduleTypeLimits,
  {8f42e0de-6df1-43cf-ab1d-0580db9b6924}, !- Handle
  Fraction,                               !- Name
  0,                                      !- Lower Limit Value {BasedOnField A4}
  1,                                      !- Upper Limit Value {BasedOnField A4}
  CONTINUOUS;                             !- Numeric Type

OS:Curve:Cubic,
  {7d5be238-7cdb-4330-9f1f-51c4d93f23b3}, !- Handle
  Kitchen_Case:2_SELFCONTAINEDDISPLAYCASEMultiShelfVertical_LatentEnergyMult, !- Name
  0.026526281,                            !- Coefficient1 Constant
  0.001078032,                            !- Coefficient2 x
  -6.02558e-005,                          !- Coefficient3 x**2
  1.23732e-006,                           !- Coefficient4 x**3
  -35,                                    !- Minimum Value of x {BasedOnField A2}
  20;                                     !- Maximum Value of x {BasedOnField A2}

OS:SpaceInfiltration:DesignFlowRate,
  {ddbe098d-84d3-446d-ae02-fd17572a0ca4}, !- Handle
  Kitchen_Infiltration,                   !- Name
  {d751c74a-75be-415a-bc46-4402a5eab48f}, !- Space or SpaceType Name
  {48287caa-b2f8-478a-b53f-b9588f3bb6c9}, !- Schedule Name
  Flow/ExteriorArea,                      !- Design Flow Rate Calculation Method
  ,                                       !- Design Flow Rate {m3/s}
  ,                                       !- Flow per Space Floor Area {m3/s-m2}
  0.000302,                               !- Flow per Exterior Surface Area {m3/s-m2}
  ,                                       !- Air Changes per Hour {1/hr}
  1,                                      !- Constant Term Coefficient
  0,                                      !- Temperature Term Coefficient
  0,                                      !- Velocity Term Coefficient
  0;                                      !- Velocity Squared Term Coefficient

OS:Schedule:Compact,
  {48287caa-b2f8-478a-b53f-b9588f3bb6c9}, !- Handle
  INFIL_HALF_ON_SCH,                      !- Name
  {8f42e0de-6df1-43cf-ab1d-0580db9b6924}, !- Schedule Type Limits Name
  Through: 12/31,                         !- Field 1
  For: Weekdays SummerDesignDay,          !- Field 2
  Until: 05:00,                           !- Field 3
  1.0,                                    !- Field 4
  Until: 24:00,                           !- Field 5
  0.5,                                    !- Field 6
  For: Saturday WinterDesignDay,          !- Field 7
  Until: 05:00,                           !- Field 8
  1.0,                                    !- Field 9
  Until: 24:00,                           !- Field 10
  0.5,                                    !- Field 11
  For: Sunday Holidays AllOtherDays,      !- Field 12
  Until: 05:00,                           !- Field 13
  1.0,                                    !- Field 14
  Until: 24:00,                           !- Field 15
  0.5;                                    !- Field 16

OS:Meter,
  {ee4bb86b-6965-4375-aff0-6cb8fb2cc83b}, !- Handle
  Refrigeration:Electricity,              !- Name
  hourly,                                 !- Reporting Frequency
  False,                                  !- Meter File Only
  False;                                  !- Cumulative

OS:Construction,
  {14608661-e0b7-4d87-934d-51f67dc42944}, !- Handle
  AIR-WALL,                               !- Name
  ,                                       !- Surface Rendering Name
  {2ec50484-5838-47be-89b7-409eb209a30f}; !- Layer 1

OS:Material:NoMass,
  {2ec50484-5838-47be-89b7-409eb209a30f}, !- Handle
  MAT-AIR-WALL,                           !- Name
  Rough,                                  !- Roughness
  0.2079491,                              !- Thermal Resistance {m2-K/W}
  0.9,                                    !- Thermal Absorptance
  0.7;                                    !- Solar Absorptance

OS:Lights:Definition,
  {307887c0-4655-4b45-a0b4-97fce93a7f31}, !- Handle
  Kitchen_Lights Definition,              !- Name
  Watts/Area,                             !- Design Level Calculation Method
  ,                                       !- Lighting Level {W}
  12.9,                                   !- Watts per Space Floor Area {W/m2}
  ,                                       !- Watts per Person {W/person}
  0.7,                                    !- Fraction Radiant
  0.2,                                    !- Fraction Visible
  0,                                      !- Return Air Fraction
  No;                                     !- Return Air Fraction Calculated from Plenum Temperature

OS:Lights,
  {8f45bb83-44bc-4a87-a884-3e0131ae9e73}, !- Handle
  Kitchen_Lights,                         !- Name
  {307887c0-4655-4b45-a0b4-97fce93a7f31}, !- Lights Definition Name
  {d751c74a-75be-415a-bc46-4402a5eab48f}, !- Space or SpaceType Name
  {87879395-ea7b-488b-98d3-2b5de113abca}, !- Schedule Name
  1,                                      !- Fraction Replaceable
  ,                                       !- Multiplier
  General;                                !- End-Use Subcategory

OS:Schedule:Compact,
  {87879395-ea7b-488b-98d3-2b5de113abca}, !- Handle
  BLDG_LIGHT_SCH,                         !- Name
  {8f42e0de-6df1-43cf-ab1d-0580db9b6924}, !- Schedule Type Limits Name
  Through: 12/31,                         !- Field 1
  For: SummerDesignDay,                   !- Field 2
  Until: 24:00,                           !- Field 3
  1.0,                                    !- Field 4
  For: WinterDesignDay,                   !- Field 5
  Until: 24:00,                           !- Field 6
  0.0,                                    !- Field 7
  For: Weekday Saturday Sunday Holidays AllOtherDays, !- Field 8
  Until: 01:00,                           !- Field 9
  0.45,                                   !- Field 10
  Until: 05:00,                           !- Field 11
  0.15,                                   !- Field 12
  Until: 06:00,                           !- Field 13
  0.45,                                   !- Field 14
  Until: 24:00,                           !- Field 15
  0.90;                                   !- Field 16

OS:SubSurface,
  {c3bf106e-c79c-42ca-bc2d-4c36eb0fa3cd}, !- Handle
  Dining_Wall_East_Window,                !- Name
  FixedWindow,                            !- Sub Surface Type
  {dcddd1b2-a9d6-4b8a-b3d8-0fdb732d761b}, !- Construction Name
  {6b1ef8fa-2f53-484f-9a9d-b5fe9f0901a2}, !- Surface Name
  ,                                       !- Outside Boundary Condition Object
  ,                                       !- View Factor to Ground
  ,                                       !- Shading Control Name
  ,                                       !- Frame and Divider Name
  1,                                      !- Multiplier
  ,                                       !- Number of Vertices
  15.2428, 0.254, 1.9817,                 !- X,Y,Z Vertex 1 {m}
  15.2428, 0.254, 1.0671,                 !- X,Y,Z Vertex 2 {m}
  15.2428, 7.3673, 1.0671,                !- X,Y,Z Vertex 3 {m}
  15.2428, 7.3673, 1.9817;                !- X,Y,Z Vertex 4 {m}

OS:Construction,
  {dcddd1b2-a9d6-4b8a-b3d8-0fdb732d761b}, !- Handle
  Window Non-res Fixed,                   !- Name
  ,                                       !- Surface Rendering Name
  {dfcbbd9b-f29d-423b-bbbd-c4f09eb36094}; !- Layer 1

OS:WindowMaterial:SimpleGlazingSystem,
  {dfcbbd9b-f29d-423b-bbbd-c4f09eb36094}, !- Handle
  NonRes Fixed Assembly Window,           !- Name
  3.23646,                                !- U-Factor {W/m2-K}
  0.39;                                   !- Solar Heat Gain Coefficient

OS:Surface,
  {6b1ef8fa-2f53-484f-9a9d-b5fe9f0901a2}, !- Handle
  Dining_Wall_East,                       !- Name