
OS:Version,
  {bf69f1fa-ffb9-4f59-b452-7d5a145f55b6}, !- Handle
  1.8.5;                                  !- Version Identifier

OS:Site,
  {4e362f31-7874-4286-be69-8657dac5633c}, !- Handle
  USA IL-CHICAGO-OHARE,                   !- Name
  41.77,                                  !- Latitude {deg}
  -87.75,                                 !- Longitude {deg}
  -6,                                     !- Time Zone {hr}
  190,                                    !- Elevation {m}
  City;                                   !- Terrain

OS:SimulationControl,
  {9c640d3a-8bd2-4464-b490-6e16981e7df8}, !- Handle
  Yes,                                    !- Do Zone Sizing Calculation
  Yes,                                    !- Do System Sizing Calculation
  Yes,                                    !- Do Plant Sizing Calculation
  No,                                     !- Run Simulation for Sizing Periods
  Yes,                                    !- Run Simulation for Weather File Run Periods
  0.04,                                   !- Loads Convergence Tolerance Value
  0.2,                                    !- Temperature Convergence Tolerance Value {deltaC}
  FullInteriorAndExterior,                !- Solar Distribution
  25,                                     !- Maximum Number of Warmup Days
  6;                                      !- Minimum Number of Warmup Days

OS:Curve:Biquadratic,
  {b060f4ab-8165-4bd9-8d42-4e4aeb702611}, !- Handle
  Cool-EIR-fT,                            !- Name
  0.28687133,                             !- Coefficient1 Constant
  0.023902164,                            !- Coefficient2 x
  -0.000810648,                           !- Coefficient3 x**2
  0.013458546,                            !- Coefficient4 y
  0.0003389364,                           !- Coefficient5 y**2
  -0.0004870044,                          !- Coefficient6 x*y
  -100,                                   !- Minimum Value of x {BasedOnField A2}
  100,                                    !- Maximum Value of x {BasedOnField A2}
  -100,                                   !- Minimum Value of y {BasedOnField A3}
  100;                                    !- Maximum Value of y {BasedOnField A3}

OS:Material,
  {d1cedf62-e0ab-4bc4-b1c3-6f1aeb30a0a8}, !- Handle
  Wood Frame NonRes Wall Insulation,      !- Name
  MediumRough,                            !- Roughness
  0.0812847864409827,                     !- Thickness {m}
  0.049,                                  !- Conductivity {W/m-K}
  265,                                    !- Density {kg/m3}
  836.8,                                  !- Specific Heat {J/kg-K}
  0.9,                                    !- Thermal Absorptance
  0.7,                                    !- Solar Absorptance
  0.7;                                    !- Visible Absorptance

OS:Schedule:Compact,
  {fbd5047f-40b6-41ed-90f2-1e6a3845787b}, !- Handle
  CLOTHING_SCH,                           !- Name
  ,                                       !- Schedule Type Limits Name
  Through: 04/30,                         !- Field 1
  For: AllDays,                           !- Field 2
  Until: 24:00,                           !- Field 3
  1.0,                                    !- Field 4
  Through: 09/30,                         !- Field 5
  For: AllDays,                           !- Field 6
  Until: 24:00,                           !- Field 7
  0.5,                                    !- Field 8
  Through: 12/31,                         !- Field 9
  For: AllDays,                           !- Field 10
  Until: 24:00,                           !- Field 11
  1.0;                                    !- Field 12

OS:ScheduleTypeLimits,
  {c7906682-7378-4815-90e9-e627c804e4d8}, !- Handle
  {94bb7cd1-a1f0-4e87-8abb-f8d41467eca3}; !- Name

OS:GasEquipment:Definition,
  {f5323bd2-26a0-4cbf-bada-8406937872c6}, !- Handle
  Kitchen_MiscGas_Equip Definition,       !- Name
  EquipmentLevel,                         !- Design Level Calculation Method
  150055,                                 !- Design Level {W}
  ,                                       !- Watts per Space Floor Area {W/m2}
  ,                                       !- Watts per Person {W/Person}
  0.1,                                    !- Fraction Latent
  0.2,                                    !- Fraction Radiant
  0.7;                                    !- Fraction Lost

OS:GasEquipment,
  {be11bc26-dd93-47cd-943b-4c3aae3b645d}, !- Handle
  Kitchen_MiscGas_Equip,                  !- Name
  {f5323bd2-26a0-4cbf-bada-8406937872c6}, !- Gas Equipment Definition Name
  {058d2aa6-ed8d-4c35-8d44-358947b5b986}, !- Space or SpaceType Name
  {99c30b40-972a-440b-ac43-75b06ea18bee}, !- Schedule Name
  ,                                       !- Multiplier
  MiscGas;                                !- End-Use Subcategory

OS:Space,
  {058d2aa6-ed8d-4c35-8d44-358947b5b986}, !- Handle
  Kitchen,                                !- Name
  {7b9e6cb2-8719-4166-bc38-2a99f9ab3453}, !- Space Type Name
  ,                                       !- Default Construction Set Name
  ,                                       !- Default Schedule Set Name
  0,                                      !- Direction of Relative North {deg}
  0,                                      !- X Origin {m}
  0,                                      !- Y Origin {m}
  0,                                      !- Z Origin {m}
  {02481d33-da43-4513-8f16-19ccb0ad4f37}, !- Building Story Name
  {a182c9c7-a3aa-41d5-8cf4-a07f984a4816}, !- Thermal Zone Name
  Yes,                                    !- Part of Total Floor Area
  {8cc07336-bd45-4758-b06f-9a29e614101b}; !- Design Specification Outdoor Air Object Name

OS:ThermostatSetpoint:DualSetpoint,
  {41f4c6db-494c-4a20-aa34-65c090068e54}, !- Handle
  {3e5d2e39-35e2-4ee4-99d2-c6739cc9dc71}, !- Name
  {3ee4bc27-8dbe-4c1a-94a3-5c8e9b254c03}, !- Heating Setpoint Temperature Schedule Name
  {f625a9b6-572c-419b-8a9b-27e45f755a79}; !- Cooling Setpoint Temperature Schedule Name

OS:Schedule:Compact,
  {3ee4bc27-8dbe-4c1a-94a3-5c8e9b254c03}, !- Handle
  HTGSETP_KITCHEN_SCH,                    !- Name
  {fb3cd989-b4fa-4d1d-b4a7-17ef2751f78c}, !- Schedule Type Limits Name
  Through: 12/31,                         !- Field 1
  For: SummerDesignDay,                   !- Field 2
  Until: 24:00,                           !- Field 3
  15.6,                                   !- Field 4
  For: WinterDesignDay,                   !- Field 5
  Until: 24:00,                           !- Field 6
  19,                                     !- Field 7
  For: AllOtherDays,                      !- Field 8
  Until: 01:00,                           !- Field 9
  19,                                     !- Field 10
  Until: 05:00,                           !- Field 11
  15.6,                                   !- Field 12
  Until: 24:00,                           !- Field 13
  19;                                     !- Field 14

OS:ScheduleTypeLimits,
  {fb3cd989-b4fa-4d1d-b4a7-17ef2751f78c}, !- Handle
  Temperature,                            !- Name
  -60,                                    !- Lower Limit Value {BasedOnField A4}
  200,                                    !- Upper Limit Value {BasedOnField A4}
  CONTINUOUS,                             !- Numeric Type
  Temperature;                            !- Unit Type

OS:Schedule:Compact,
  {f625a9b6-572c-419b-8a9b-27e45f755a79}, !- Handle
  CLGSETP_KITCHEN_SCH,                    !- Name
  {fb3cd989-b4fa-4d1d-b4a7-17ef2751f78c}, !- Schedule Type Limits Name
  Through: 12/31,                         !- Field 1
  For: WinterDesignDay,                   !- Field 2
  Until: 24:00,                           !- Field 3
  30,                                     !- Field 4
  For: AllOtherDays,                      !- Field 5
  Until: 01:00,                           !- Field 6
  26,                                     !- Field 7
  Until: 05:00,                           !- Field 8
  30,                                     !- Field 9
  Until: 24:00,                           !- Field 10
  26;                                     !- Field 11

OS:Schedule:Compact,
  {99c30b40-972a-440b-ac43-75b06ea18bee}, !- Handle
  GAS_EQUIP_SCH,                          !- Name
  {40e774a5-9534-4f49-8543-cf03c7a8b938}, !- Schedule Type Limits Name
  Through: 12/31,                         !- Field 1
  For: SummerDesignDay,                   !- Field 2
  Until: 24:00,                           !- Field 3
  0.25,                                   !- Field 4
  For: WinterDesignDay,                   !- Field 5
  Until: 24:00,                           !- Field 6
  0.0,                                    !- Field 7
  For: AllOtherDays,                      !- Field 8
  Until: 05:00,                           !- Field 9
  0.02,                                   !- Field 10
  Until: 06:00,                           !- Field 11
  0.03,                                   !- Field 12
  Until: 07:00,                           !- Field 13
  0.09,                                   !- Field 14
  Until: 08:00,                           !- Field 15
  0.14,                                   !- Field 16
  Until: 10:00,                           !- Field 17
  0.10,                                   !- Field 18
  Until: 11:00,                           !- Field 19
  0.22,                                   !- Field 20
  Until: 12:00,                           !- Field 21
  0.27,                                   !- Field 22
  Until: 13:00,                           !- Field 23
  0.24,                                   !- Field 24
  Until: 14:00,                           !- Field 25
  0.21,                                   !- Field 26
  Until: 15:00,                           !- Field 27
  0.14,                                   !- Field 28
  Until:16:00,                            !- Field 29
  0.13,                                   !- Field 30
  Until:17:00,                            !- Field 31
  0.15,                                   !- Field 32
  Until: 20:00,                           !- Field 33
  0.17,                                   !- Field 34
  Until: 21:00,                           !- Field 35
  0.15,                                   !- Field 36
  Until: 22:00,                           !- Field 37
  0.14,                                   !- Field 38
  Until: 23:00,                           !- Field 39
  0.12,                                   !- Field 40
  Until: 24:00,                           !- Field 41
  0.02;                                   !- Field 42

OS:ScheduleTypeLimits,
  {40e774a5-9534-4f49-8543-cf03c7a8b938}, !- Handle
  Fraction,                               !- Name
  0,                                      !- Lower Limit Value {BasedOnField A4}
  1,                                      !- Upper Limit Value {BasedOnField A4}
  CONTINUOUS;                             !- Numeric Type

OS:ElectricEquipment:Definition,
  {0a9999c5-5afd-436a-9130-7374a75e81bd}, !- Handle
  Dining_MiscElec_Equip Definition,       !- Name
  EquipmentLevel,                         !- Design Level Calculation Method
  15000,                                  !- Design Level {W}
  ,                                       !- Watts per Space Floor Area {W/m2}
  ,                                       !- Watts per Person {W/person}
  0.25,                                   !- Fraction Latent
  0.3,                                    !- Fraction Radiant
  0;                                      !- Fraction Lost

OS:ElectricEquipment,
  {cd853ffc-5e4f-4993-8b8e-0ef9afcce6d0}, !- Handle
  Dining_MiscElec_Equip,                  !- Name
  {0a9999c5-5afd-436a-9130-7374a75e81bd}, !- Electric Equipment Definition Name
  {653f170e-4cde-47ca-b73a-f465b4bcdea6}, !- Space or SpaceType Name
  {0aab6ef3-49fb-4cd8-a7e8-039886669433}, !- Schedule Name
  ,                                       !- Multiplier
  MiscElec;                               !- End-Use Subcategory

OS:Space,
  {653f170e-4cde-47ca-b73a-f465b4bcdea6}, !- Handle
  Dining,                                 !- Name
  {44a5a6b0-3cb3-4827-8970-0df5326a44a4}, !- Space Type Name
  ,                                       !- Default Construction Set Name
  ,                                       !- Default Schedule Set Name
  0,                                      !- Direction of Relative North {deg}
  0,                                      !- X Origin {m}
  0,                                      !- Y Origin {m}
  0,                                      !- Z Origin {m}
  {02481d33-da43-4513-8f16-19ccb0ad4f37}, !- Building Story Name
  {a30f25fa-ebe0-4680-bff6-3658bcc6e767}, !- Thermal Zone Name
  Yes,                                    !- Part of Total Floor Area
  {2edb9689-e2e2-439b-87ea-52b52c5f8272}; !- Design Specification Outdoor Air Object Name

OS:ThermostatSetpoint:DualSetpoint,
  {160ca0df-47ce-4d82-a195-6c6e565687b1}, !- Handle
  {369e65aa-04d2-4dcb-9d3e-e136a0ac700a}, !- Name
  {7dd72b21-cec4-4686-b86b-2fbade8b91b0}, !- Heating Setpoint Temperature Schedule Name
  {1e3d14ee-f51f-42a5-996f-833055954ba1}; !- Cooling Setpoint Temperature Schedule Name

OS:Schedule:Compact,
  {7dd72b21-cec4-4686-b86b-2fbade8b91b0}, !- Handle
  HTGSETP_SCH,                            !- Name
  {fb3cd989-b4fa-4d1d-b4a7-17ef2751f78c}, !- Schedule Type Limits Name
  Through: 12/31,                         !- Field 1
  For: SummerDesignDay,                   !- Field 2
  Until: 24:00,                           !- Field 3
  15.6,                                   !- Field 4
  For: WinterDesignDay,                   !- Field 5
  Until: 24:00,                           !- Field 6
  21,                                     !- Field 7
  For: AllOtherDays,                      !- Field 8
  Until: 01:00,                           !- Field 9
  21,                                     !- Field 10
  Until: 05:00,                           !- Field 11
  15.6,                                   !- Field 12
  Until: 24:00,                           !- Field 13
  21;                                     !- Field 14

OS:Schedule:Compact,
  {1e3d14ee-f51f-42a5-996f-833055954ba1}, !- Handle
  CLGSETP_SCH,                            !- Name
  {fb3cd989-b4fa-4d1d-b4a7-17ef2751f78c}, !- Schedule Type Limits Name
  Through: 12/31,                         !- Field 1
  For: WinterDesignDay,                   !- Field 2
  Until: 24:00,                           !- Field 3
  30,                                     !- Field 4
  For: AllOtherDays,                      !- Field 5
  Until: 01:00,                           !- Field 6
  24,                                     !- Field 7
  Until: 05:00,                           !- Field 8
  30,                                     !- Field 9
  Until: 24:00,                           !- Field 10
  24;                                     !- Field 11

OS:Schedule:Compact,
  {0aab6ef3-49fb-4cd8-a7e8-039886669433}, !- Handle
  BLDG_EQUIP_SCH,                         !- Name
  {40e774a5-9534-4f49-8543-cf03c7a8b938}, !- Schedule Type Limits Name
  Through: 12/31,                         !- Field 1
  For: Weekday,                           !- Field 2
  Until: 06:00,                           !- Field 3
  0.10,                                   !- Field 4
  Until: 08:00,                           !- Field 5
  0.35,                                   !- Field 6
  Until: 10:00,                           !- Field 7
  0.25,                                   !- Field 8
  Until: 14:00,                           !- Field 9
  0.35,                                   !- Field 10
  Until: 17:00,                           !- Field 11
  0.25,                                   !- Field 12
  Until: 20:00,                           !- Field 13
  0.35,                                   !- Field 14
  Until: 24:00,                           !- Field 15
  0.25,                                   !- Field 16
  For: Saturday,                          !- Field 17
  Until: 06:00,                           !- Field 18
  0.10,                                   !- Field 19
  Until: 08:00,                           !- Field 20
  0.35,                                   !- Field 21
  Until: 10:00,                           !- Field 22
  0.25,                                   !- Field 23
  Until: 14:00,                           !- Field 24
  0.35,                                   !- Field 25
  Until: 17:00,                           !- Field 26
  0.25,                                   !- Field 27
  Until: 20:00,                           !- Field 28
  0.35,                                   !- Field 29
  Until: 24:00,                           !- Field 30
  0.25,                                   !- Field 31
  For: SummerDesignDay,                   !- Field 32
  Until: 24:00,                           !- Field 33
  0.35,                                   !- Field 34
  For: WinterDesignDay,                   !- Field 35
  Until: 24:00,                           !- Field 36
  0.0,                                    !- Field 37
  For: Sunday Holidays AllOtherDays,      !- Field 38
  Until: 06:00,                           !- Field 39
  0.10,                                   !- Field 40
  Until: 08:00,                           !- Field 41
  0.35,                                   !- Field 42
  Until: 10:00,                           !- Field 43
  0.25,                                   !- Field 44
  Until: 14:00,                           !- Field 45
  0.35,                                   !- Field 46
  Until: 17:00,                           !- Field 47
  0.25,                                   !- Field 48
  Until: 20:00,                           !- Field 49
  0.35,                                   !- Field 50
  Until: 24:00,                           !- Field 51
  0.25;                                   !- Field 52

OS:Schedule:Compact,
  {11f14dc0-3ba2-46ae-927b-f9f2ad7b7216}, !- Handle
  SWHSys1-Loop-Temp-Schedule,             !- Name
  {fb3cd989-b4fa-4d1d-b4a7-17ef2751f78c}, !- Schedule Type Limits Name
  Through: 12/31,                         !- Field 1
  For: AllDays,                           !- Field 2
  Until: 24:00,                           !- Field 3
  60.0;                                   !- Field 4

OS:Surface,
  {f17b605a-cbbb-4d29-8638-cd42afba0e47}, !- Handle
  north-roof,                             !- Name
  RoofCeiling,                            !- Surface Type
  {328b2358-7165-4168-b109-0b0b7b09ba79}, !- Construction Name
  {1165d191-5ba0-4d71-82b0-d803cc699971}, !- Space Name
  Outdoors,                               !- Outside Boundary Condition
  ,                                       !- Outside Boundary Condition Object
  SunExposed,                             !- Sun Exposure
  WindExposed,                            !- Wind Exposure
  ,                                       !- View Factor to Ground
  ,                                       !- Number of Vertices
  12.7023, 7.6214, 2.5405,                !- X,Y,Z Vertex 1 {m}
  15.2428, 15.2428, 0,                    !- X,Y,Z Vertex 2 {m}
  0, 15.2428, 0,                          !- X,Y,Z Vertex 3 {m}
  2.5405, 7.6214, 2.5405;                 !- X,Y,Z Vertex 4 {m}

OS:Construction,
  {328b2358-7165-4168-b109-0b0b7b09ba79}, !- Handle
  Attic Non-res Roof,                     !- Name
  ,                                       !- Surface Rendering Name
  {63ae4467-f978-455a-9a0a-ad6098344a7e}, !- Layer 1
  {42c0400b-ddb6-49f5-bbac-626be3ad8daf}; !- Layer 2

OS:Material,
  {63ae4467-f978-455a-9a0a-ad6098344a7e}, !- Handle
  Roof Membrane,                          !- Name
  VeryRough,                              !- Roughness
  0.0095,                                 !- Thickness {m}
  0.16,                                   !- Conductivity {W/m-K}
  1121.29,                                !- Density {kg/m3}
  1460,                                   !- Specific Heat {J/kg-K}
  0.9,                                    !- Thermal Absorptance
  0.7,                                    !- Solar Absorptance
  0.7;                                    !- Visible Absorptance

OS:Material,
  {42c0400b-ddb6-49f5-bbac-626be3ad8daf}, !- Handle
  Metal Decking,                          !- Name
  MediumSmooth,                           !- Roughness
  0.0015,                                 !- Thickness {m}
  45.006,                                 !- Conductivity {W/m-K}
  7680,                                   !- Density {kg/m3}
  418.4,                                  !- Specific Heat {J/kg-K}
  0.9,                                    !- Thermal Absorptance
  0.7,                                    !- Solar Absorptance
  0.3;                                    !- Visible Absorptance

OS:Space,
  {1165d191-5ba0-4d71-82b0-d803cc699971}, !- Handle
  attic,                                  !- Name
  {0fae7400-a505-40a1-9264-b7ad1f0a1e76}, !- Space Type Name
  ,                                       !- Default Construction Set Name
  ,                                       !- Default Schedule Set Name
  0,                                      !- Direction of Relative North {deg}
  0,                                      !- X Origin {m}
  0,                                      !- Y Origin {m}
  3.0488,                                 !- Z Origin {m}
  {b2538549-60fe-4e76-b1c6-060d6a510b7e}, !- Building Story Name
  ,                                       !- Thermal Zone Name
  No;                                     !- Part of Total Floor Area

OS:Surface,
  {fca1eb3b-46be-45c0-b6bf-4e17ddb218cd}, !- Handle
  attic-floor-kitchen,                    !- Name
  Floor,                                  !- Surface Type
  {8bb2a3a3-c82f-43a9-95c2-fa7b482f7dae}, !- Construction Name
  {1165d191-5ba0-4d71-82b0-d803cc699971}, !- Space Name
  Surface,                                !- Outside Boundary Condition
  {41f67b69-927e-48d0-890a-e871d5382737}, !- Outside Boundary Condition Object
  NoSun,                                  !- Sun Exposure
  NoWind,                                 !- Wind Exposure
  ,                                       !- View Factor to Ground
  ,                                       !- Number of Vertices
  15.2428, 15.2428, 0,                    !- X,Y,Z Vertex 1 {m}
  15.2428, 7.6214, 0,                     !- X,Y,Z Vertex 2 {m}
  0, 7.6214, 0,                           !- X,Y,Z Vertex 3 {m}
  0, 15.2428, 0;                          !- X,Y,Z Vertex 4 {m}

OS:Construction,
  {8bb2a3a3-c82f-43a9-95c2-fa7b482f7dae}, !- Handle
  Attic Non-res Floor,                    !- Name
  ,                                       !- Surface Rendering Name
  {b550ee84-7c1f-4286-be7f-baaebd0ed625}, !- Layer 1
  {047dda84-957b-40e6-8580-0165ceba9c34}, !- Layer 2
  {b550ee84-7c1f-4286-be7f-baaebd0ed625}; !- Layer 3

OS:Material,
  {b550ee84-7c1f-4286-be7f-baaebd0ed625}, !- Handle
  1/2IN Gypsum,                           !- Name
  Smooth,                                 !- Roughness
  0.0127,                                 !- Thickness {m}
  0.16,                                   !- Conductivity {W/m-K}
  784.9,                                  !- Density {kg/m3}
  830,                                    !- Specific Heat {J/kg-K}
  0.9,                                    !- Thermal Absorptance
  0.92,                                   !- Solar Absorptance
  0.92;                                   !- Visible Absorptance

OS:Material,
  {047dda84-957b-40e6-8580-0165ceba9c34}, !- Handle
  AtticFloor NonRes Insulation,           !- Name
  MediumRough,                            !- Roughness
  0.236804989096202,                      !- Thickness {m}
  0.049,                                  !- Conductivity {W/m-K}
  265,                                    !- Density {kg/m3}
  836.8,                                  !- Specific Heat {J/kg-K}
  0.9,                                    !- Thermal Absorptance
  0.7,                                    !- Solar Absorptance
  0.7;                                    !- Visible Absorptance

OS:Schedule:Compact,
  {afc674fe-f7f9-47bf-b091-f4fa100b7ccf}, !- Handle
  ACTIVITY_SCH,                           !- Name
  {11adaadc-75a1-4fb4-ab5d-8e3c4821f9a2}, !- Schedule Type Limits Name
  Through: 12/31,                         !- Field 1
  For: AllDays,                           !- Field 2
  Until: 24:00,                           !- Field 3
  120.;                                   !- Field 4

OS:ScheduleTypeLimits,
  {23c3edda-57d5-425c-a0bf-5a179223486e}, !- Handle
  {9d1e1ea0-8bbd-4661-abc0-774b28bf94cd}; !- Name

OS:Surface,
  {b4bf478d-abc6-4076-90bc-89b1a6a067a8}, !- Handle
  Dining_Wall_West,                       !- Name
  Wall,                                   !- Surface Type
  {17eefa34-9ae1-4d58-9338-85731082f240}, !- Construction Name
  {653f170e-4cde-47ca-b73a-f465b4bcdea6}, !- Space Name
  Outdoors,                               !- Outside Boundary Condition
  ,                                       !- Outside Boundary Condition Object
  SunExposed,                             !- Sun Exposure
  WindExposed,                            !- Wind Exposure
  ,                                       !- View Factor to Ground
  ,                                       !- Number of Vertices
  0, 7.6214, 3.0488,                      !- X,Y,Z Vertex 1 {m}
  0, 7.6214, 0,                           !- X,Y,Z Vertex 2 {m}
  0, 0, 0,                                !- X,Y,Z Vertex 3 {m}
  0, 0, 3.0488;                           !- X,Y,Z Vertex 4 {m}

OS:Construction,
  {17eefa34-9ae1-4d58-9338-85731082f240}, !- Handle
  Wood Frame Non-res Ext Wall,            !- Name
  ,                                       !- Surface Rendering Name
  {79df73a5-444c-478a-b283-f51973ea5e67}, !- Layer 1
  {d1cedf62-e0ab-4bc4-b1c3-6f1aeb30a0a8}, !- Layer 2
  {b550ee84-7c1f-4286-be7f-baaebd0ed625}; !- Layer 3

OS:Material,
  {79df73a5-444c-478a-b283-f51973ea5e67}, !- Handle
  Wood Siding,                            !- Name
  MediumSmooth,                           !- Roughness
  0.01,                                   !- Thickness {m}
  0.11,                                   !- Conductivity {W/m-K}
  544.62,                                 !- Density {kg/m3}
  1210,                                   !- Specific Heat {J/kg-K}
  0.9,                                    !- Thermal Absorptance
  0.78,                                   !- Solar Absorptance
  0.78;                                   !- Visible Absorptance

OS:Schedule:Compact,
  {abc5060b-801d-4e3e-ad91-a01cec1607e5}, !- Handle
  INFIL_HALF_ON_SCH,                      !- Name
  {40e774a5-9534-4f49-8543-cf03c7a8b938}, !- Schedule Type Limits Name
  Through: 12/31,                         !- Field 1
  For: Weekdays SummerDesignDay,          !- Field 2
  Until: 05:00,                           !- Field 3
  1.0,                                    !- Field 4
  Until: 24:00,                           !- Field 5
  0.5,                                    !- Field 6
  For: Saturday WinterDesignDay,          !- Field 7
  Until: 05:00,                           !- Field 8
  1.0,                                    !- Field 9
  Until: 24:00,                           !- Field 10
  0.5,                                    !- Field 11
  For: Sunday Holidays AllOtherDays,      !- Field 12
  Until: 05:00,                           !- Field 13
  1.0,                                    !- Field 14
  Until: 24:00,                           !- Field 15
  0.5;                                    !- Field 16

OS:Curve:Biquadratic,
  {8a8ffc3a-aa83-484d-bd82-34c04621d495}, !- Handle
  Cool-Cap-fT,                            !- Name
  0.9712123,                              !- Coefficient1 Constant
  -0.015275502,                           !- Coefficient2 x
  0.0014434524,                           !- Coefficient3 x**2
  -0.00039321,                            !- Coefficient4 y
  -6.8364e-006,                           !- Coefficient5 y**2
  -0.0002905956,                          !- Coefficient6 x*y
  -100,                                   !- Minimum Value of x {BasedOnField A2}
  100,                                    !- Maximum Value of x {BasedOnField A2}
  -100,                                   !- Minimum Value of y {BasedOnField A3}
  100;                                    !- Maximum Value of y {BasedOnField A3}

OS:Schedule:Compact,
  {ffe62550-a130-4ac5-ac94-d5dd6aed8d02}, !- Handle
  Kitchen_Case:2_SELFCONTAINEDDISPLAYCASE_CaseStockingSched, !- Name
  ,                                       !- Schedule Type Limits Name
  Through: 12/31,                         !- Field 1
  For:AllDays,                            !- Field 2
  Until: 6:00,                            !- Field 3
  0.0,                                    !- Field 4
  Until: 7:00,                            !- Field 5
  50.0,                                   !- Field 6
  Until: 9:00,                            !- Field 7
  70.0,                                   !- Field 8
  Until: 10:00,                           !- Field 9
  80.0,                                   !- Field 10
  Until: 11:00,                           !- Field 11
  70.0,                                   !- Field 12
  Until: 13:00,                           !- Field 13
  50.0,                                   !- Field 14
  Until: 14:00,                           !- Field 15
  80.0,                                   !- Field 16
  Until: 15:00,                           !- Field 17
  90.0,                                   !- Field 18
  Until: 16:00,                           !- Field 19
  80.0,                                   !- Field 20
  Until: 24:00,                           !- Field 21
  0.0;                                    !- Field 22

OS:ScheduleTypeLimits,
  {2c7932f3-c882-4c2c-896a-4668266da13e}, !- Handle
  {148bcddd-23b0-4aad-87dd-6910cf0814ca}; !- Name

OS:Meter,
  {ffddb043-acd4-4245-8386-de7297e3c445}, !- Handle