
OS:Version,
  {f1c97705-174e-4dca-8ce3-0647490aebff}, !- Handle
  1.8.0;                                  !- Version Identifier

OS:Site,
  {6f86bb5a-a0f5-434c-a43a-770a8823dc6f}, !- Handle
  USA IL-CHICAGO-OHARE,                   !- Name
  41.77,                                  !- Latitude {deg}
  -87.75,                                 !- Longitude {deg}
  -6,                                     !- Time Zone {hr}
  190,                                    !- Elevation {m}
  City;                                   !- Terrain

OS:SimulationControl,
  {116f62d8-6ad0-4f79-a29c-0786b15a05fb}, !- Handle
  Yes,                                    !- Do Zone Sizing Calculation
  Yes,                                    !- Do System Sizing Calculation
  Yes,                                    !- Do Plant Sizing Calculation
  No,                                     !- Run Simulation for Sizing Periods
  Yes,                                    !- Run Simulation for Weather File Run Periods
  0.04,                                   !- Loads Convergence Tolerance Value
  0.2,                                    !- Temperature Convergence Tolerance Value {deltaC}
  FullInteriorAndExterior,                !- Solar Distribution
  25,                                     !- Maximum Number of Warmup Days
  6;                                      !- Minimum Number of Warmup Days

OS:InternalMass:Definition,
  {f6748226-f735-4916-aef7-00980cf45971}, !- Handle
  Dining Internal Mass Definition,        !- Name
  {452cbda7-28f9-4dcf-ac3c-62af7c7692c0}, !- Construction Name
  SurfaceArea,                            !- Design Level Calculation Method
  232.343,                                !- Surface Area {m2}
  ,                                       !- Surface Area per Space Floor Area {dimensionless}
  ;                                       !- Surface Area per Person {m2/person}

OS:Construction,
  {452cbda7-28f9-4dcf-ac3c-62af7c7692c0}, !- Handle
  InteriorFurnishings,                    !- Name
  ,                                       !- Surface Rendering Name
  {5b86f21e-f50e-453a-9909-3ab6e9df6a0c}; !- Layer 1

OS:Material,
  {5b86f21e-f50e-453a-9909-3ab6e9df6a0c}, !- Handle
  Std Wood 6inch,                         !- Name
  MediumSmooth,                           !- Roughness
  0.15,                                   !- Thickness {m}
  0.12,                                   !- Conductivity {W/m-K}
  540,                                    !- Density {kg/m3}
  1210,                                   !- Specific Heat {J/kg-K}
  0.9,                                    !- Thermal Absorptance
  0.7,                                    !- Solar Absorptance
  0.7;                                    !- Visible Absorptance

OS:InternalMass,
  {e2f08873-35ec-4498-8e62-575af06edb56}, !- Handle
  Dining Internal Mass,                   !- Name
  {f6748226-f735-4916-aef7-00980cf45971}, !- Internal Mass Definition Name
  {b43742bc-221e-439f-8a03-a069996244f0}; !- Space or SpaceType Name

OS:Space,
  {b43742bc-221e-439f-8a03-a069996244f0}, !- Handle
  Dining,                                 !- Name
  {6a3de78a-dc61-413d-b635-83e4a075a679}, !- Space Type Name
  ,                                       !- Default Construction Set Name
  ,                                       !- Default Schedule Set Name
  0,                                      !- Direction of Relative North {deg}
  0,                                      !- X Origin {m}
  0,                                      !- Y Origin {m}
  0,                                      !- Z Origin {m}
  {d6c81491-5cc7-4f6d-9e36-b5cbfd790846}, !- Building Story Name
  {9743817e-d762-493b-9ffe-2f95379a9a44}, !- Thermal Zone Name
  Yes,                                    !- Part of Total Floor Area
  {af09731f-0aad-4035-b5dd-7a2a9aed6821}; !- Design Specification Outdoor Air Object Name

OS:ThermostatSetpoint:DualSetpoint,
  {5ed674be-e98b-4969-a556-94eef306843a}, !- Handle
  {943a0775-3bd6-433e-b767-1143cde6b26e}, !- Name
  {01e840ac-be1c-4cb0-8b9d-dc3872037762}, !- Heating Setpoint Temperature Schedule Name
  {2c99fcf4-40fd-46ce-a5a5-e4ca3256614e}; !- Cooling Setpoint Temperature Schedule Name

OS:Schedule:Compact,
  {01e840ac-be1c-4cb0-8b9d-dc3872037762}, !- Handle
  HTGSETP_SCH,                            !- Name
  {f59215fe-ec6c-4d92-b91a-1e573e3dd556}, !- Schedule Type Limits Name
  Through: 12/31,                         !- Field 1
  For: SummerDesignDay,                   !- Field 2
  Until: 24:00,                           !- Field 3
  15.6,                                   !- Field 4
  For: WinterDesignDay,                   !- Field 5
  Until: 24:00,                           !- Field 6
  21,                                     !- Field 7
  For: AllOtherDays,                      !- Field 8
  Until: 01:00,                           !- Field 9
  21,                                     !- Field 10
  Until: 05:00,                           !- Field 11
  15.6,                                   !- Field 12
  Until: 24:00,                           !- Field 13
  21;                                     !- Field 14

OS:ScheduleTypeLimits,
  {f59215fe-ec6c-4d92-b91a-1e573e3dd556}, !- Handle
  Temperature,                            !- Name
  -60,                                    !- Lower Limit Value {BasedOnField A4}
  200,                                    !- Upper Limit Value {BasedOnField A4}
  CONTINUOUS,                             !- Numeric Type
  Temperature;                            !- Unit Type

OS:Schedule:Compact,
  {2c99fcf4-40fd-46ce-a5a5-e4ca3256614e}, !- Handle
  CLGSETP_SCH,                            !- Name
  {f59215fe-ec6c-4d92-b91a-1e573e3dd556}, !- Schedule Type Limits Name
  Through: 12/31,                         !- Field 1
  For: WinterDesignDay,                   !- Field 2
  Until: 24:00,                           !- Field 3
  30,                                     !- Field 4
  For: AllOtherDays,                      !- Field 5
  Until: 01:00,                           !- Field 6
  24,                                     !- Field 7
  Until: 05:00,                           !- Field 8
  30,                                     !- Field 9
  Until: 24:00,                           !- Field 10
  24;                                     !- Field 11

OS:Meter,
  {25b0d937-9ac2-4ff3-a8c7-5fb548905e06}, !- Handle
  Heating:Electricity,                    !- Name
  hourly,                                 !- Reporting Frequency
  False,                                  !- Meter File Only
  False;                                  !- Cumulative

OS:ScheduleTypeLimits,
  {b9ff4c91-b31c-411d-9275-0033009e4275}, !- Handle
  Humidity,                               !- Name
  10,                                     !- Lower Limit Value {BasedOnField A4}
  90,                                     !- Upper Limit Value {BasedOnField A4}
  CONTINUOUS;                             !- Numeric Type

OS:People:Definition,
  {26383422-1499-489e-b4f2-6ef4d9065e92}, !- Handle
  Dining People Definition,               !- Name
  Area/Person,                            !- Number of People Calculation Method
  ,                                       !- Number of People {people}
  ,                                       !- People per Space Floor Area {person/m2}
  1.39,                                   !- Space Floor Area per Person {m2/person}
  0.3,                                    !- Fraction Radiant
  ,                                       !- Sensible Heat Fraction
  ,                                       !- Carbon Dioxide Generation Rate {m3/s-W}
  No,                                     !- Enable ASHRAE 55 Comfort Warnings
  ZoneAveraged;                           !- Mean Radiant Temperature Calculation Type

OS:People,
  {424eb205-2a31-4e90-9dd8-4a122cf2ee34}, !- Handle
  Dining People,                          !- Name
  {26383422-1499-489e-b4f2-6ef4d9065e92}, !- People Definition Name
  {b43742bc-221e-439f-8a03-a069996244f0}, !- Space or SpaceType Name
  {18135942-b615-426e-a5a7-b6fb6ed8070c}, !- Number of People Schedule Name
  {da866142-41a5-42b2-94a7-e94dffe5b97e}, !- Activity Level Schedule Name
  ,                                       !- Surface Name/Angle Factor List Name
  {69e1072b-6a9d-4811-b29a-25e6409f0fc3}; !- Work Efficiency Schedule Name

OS:Schedule:Compact,
  {18135942-b615-426e-a5a7-b6fb6ed8070c}, !- Handle
  BLDG_OCC_SCH,                           !- Name
  {c3f59f46-629a-4d1f-bc05-da072b17fc93}, !- Schedule Type Limits Name
  Through: 12/31,                         !- Field 1
  For: Weekdays,                          !- Field 2
  Until: 01:00,                           !- Field 3
  0.05,                                   !- Field 4
  Until: 05:00,                           !- Field 5
  0.0,                                    !- Field 6
  Until: 06:00,                           !- Field 7
  0.05,                                   !- Field 8
  Until: 07:00,                           !- Field 9
  0.1,                                    !- Field 10
  Until: 09:00,                           !- Field 11
  0.4,                                    !- Field 12
  Until: 10:00,                           !- Field 13
  0.3,                                    !- Field 14
  Until: 11:00,                           !- Field 15
  0.2,                                    !- Field 16
  Until: 12:00,                           !- Field 17
  0.5,                                    !- Field 18
  Until: 13:00,                           !- Field 19
  0.8,                                    !- Field 20
  Until: 14:00,                           !- Field 21
  0.7,                                    !- Field 22
  Until: 15:00,                           !- Field 23
  0.4,                                    !- Field 24
  Until: 16:00,                           !- Field 25
  0.2,                                    !- Field 26
  Until: 17:00,                           !- Field 27
  0.25,                                   !- Field 28
  Until: 18:00,                           !- Field 29
  0.5,                                    !- Field 30
  Until: 21:00,                           !- Field 31
  0.55,                                   !- Field 32
  Until: 22:00,                           !- Field 33
  0.5,                                    !- Field 34
  Until: 23:00,                           !- Field 35
  0.35,                                   !- Field 36
  Until: 24:00,                           !- Field 37
  0.2,                                    !- Field 38
  For: SummerDesignDay,                   !- Field 39
  Until: 24:00,                           !- Field 40
  1.0,                                    !- Field 41
  For: WinterDesignDay,                   !- Field 42
  Until: 24:00,                           !- Field 43
  0.0,                                    !- Field 44
  For: Saturday Sunday Holidays AllOtherDays, !- Field 45
  Until: 01:00,                           !- Field 46
  0.05,                                   !- Field 47
  Until: 05:00,                           !- Field 48
  0.0,                                    !- Field 49
  Until: 07:00,                           !- Field 50
  0.05,                                   !- Field 51
  Until: 10:00,                           !- Field 52
  0.3,                                    !- Field 53
  Until: 11:00,                           !- Field 54
  0.2,                                    !- Field 55
  Until: 12:00,                           !- Field 56
  0.45,                                   !- Field 57
  Until: 13:00,                           !- Field 58
  0.6,                                    !- Field 59
  Until:14:00,                            !- Field 60
  0.5,                                    !- Field 61
  Until: 15:00,                           !- Field 62
  0.35,                                   !- Field 63
  Until: 18:00,                           !- Field 64
  0.3,                                    !- Field 65
  Until: 21:00,                           !- Field 66
  0.55,                                   !- Field 67
  Until: 22:00,                           !- Field 68
  0.5,                                    !- Field 69
  Until: 23:00,                           !- Field 70
  0.35,                                   !- Field 71
  Until: 24:00,                           !- Field 72
  0.2;                                    !- Field 73

OS:ScheduleTypeLimits,
  {c3f59f46-629a-4d1f-bc05-da072b17fc93}, !- Handle
  Fraction,                               !- Name
  0,                                      !- Lower Limit Value {BasedOnField A4}
  1,                                      !- Upper Limit Value {BasedOnField A4}
  CONTINUOUS;                             !- Numeric Type

OS:Schedule:Compact,
  {da866142-41a5-42b2-94a7-e94dffe5b97e}, !- Handle
  ACTIVITY_SCH,                           !- Name
  {224e7930-05ef-49ef-8d23-c2dc621ff64d}, !- Schedule Type Limits Name
  Through: 12/31,                         !- Field 1
  For: AllDays,                           !- Field 2
  Until: 24:00,                           !- Field 3
  120.;                                   !- Field 4

OS:ScheduleTypeLimits,
  {45b755fd-d822-4055-a982-749d15406986}, !- Handle
  {d89f54e7-c374-4833-853e-0372dac288ea}; !- Name

OS:ScheduleTypeLimits,
  {224e7930-05ef-49ef-8d23-c2dc621ff64d}, !- Handle
  ActivityLevel,                          !- Name
  0,                                      !- Lower Limit Value {BasedOnField A4}
  ,                                       !- Upper Limit Value {BasedOnField A4}
  Continuous,                             !- Numeric Type
  ActivityLevel;                          !- Unit Type

OS:Schedule:Compact,
  {69e1072b-6a9d-4811-b29a-25e6409f0fc3}, !- Handle
  WORK_EFF_SCH,                           !- Name
  {c3f59f46-629a-4d1f-bc05-da072b17fc93}, !- Schedule Type Limits Name
  Through: 12/31,                         !- Field 1
  For: AllDays,                           !- Field 2
  Until: 24:00,                           !- Field 3
  0.0;                                    !- Field 4

OS:Schedule:Compact,
  {9f6fc077-1995-4304-9cf0-d32f6def64df}, !- Handle
  Kitchen_Case:1_WALKINFREEZER_CaseCreditReduxSched, !- Name
  {c3f59f46-629a-4d1f-bc05-da072b17fc93}, !- Schedule Type Limits Name
  Through: 12/31,                         !- Field 1
  For:AllDays,                            !- Field 2
  Interpolate:No,                         !- Field 3
  Until: 7:00,                            !- Field 4
  0.2,                                    !- Field 5
  Until: 21:00,                           !- Field 6
  0.4,                                    !- Field 7
  Until: 24:00,                           !- Field 8
  0.2;                                    !- Field 9

OS:Schedule:Compact,
  {51599d5f-18dc-4038-b91a-dbd58a91fa19}, !- Handle
  CLGSETP_KITCHEN_SCH,                    !- Name
  {f59215fe-ec6c-4d92-b91a-1e573e3dd556}, !- Schedule Type Limits Name
  Through: 12/31,                         !- Field 1
  For: WinterDesignDay,                   !- Field 2
  Until: 24:00,                           !- Field 3
  30,                                     !- Field 4
  For: AllOtherDays,                      !- Field 5
  Until: 01:00,                           !- Field 6
  26,                                     !- Field 7
  Until: 05:00,                           !- Field 8
  30,                                     !- Field 9
  Until: 24:00,                           !- Field 10
  26;                                     !- Field 11

OS:Meter,
  {454c9064-e17f-44d2-ac68-67e7c460bed5}, !- Handle
  Humidifier:Electricity,                 !- Name
  hourly,                                 !- Reporting Frequency
  False,                                  !- Meter File Only
  False;                                  !- Cumulative

OS:Material,
  {1e551726-773b-4d8e-9421-d3571aaac832}, !- Handle
  AtticFloor NonRes Insulation,           !- Name
  MediumRough,                            !- Roughness
  0.236804989096202,                      !- Thickness {m}
  0.049,                                  !- Conductivity {W/m-K}
  265,                                    !- Density {kg/m3}
  836.8,                                  !- Specific Heat {J/kg-K}
  0.9,                                    !- Thermal Absorptance
  0.7,                                    !- Solar Absorptance
  0.7;                                    !- Visible Absorptance

OS:SpaceInfiltration:DesignFlowRate,
  {f31a45f4-9549-4829-92ae-ea1556eedc42}, !- Handle
  Dining_Infiltration,                    !- Name
  {b43742bc-221e-439f-8a03-a069996244f0}, !- Space or SpaceType Name
  {e4c3649f-fe3e-425a-a648-8b794f1ae434}, !- Schedule Name
  Flow/ExteriorArea,                      !- Design Flow Rate Calculation Method
  ,                                       !- Design Flow Rate {m3/s}
  ,                                       !- Flow per Space Floor Area {m3/s-m2}
  0.000302,                               !- Flow per Exterior Surface Area {m3/s-m2}
  ,                                       !- Air Changes per Hour {1/hr}
  1,                                      !- Constant Term Coefficient
  0,                                      !- Temperature Term Coefficient
  0,                                      !- Velocity Term Coefficient
  0;                                      !- Velocity Squared Term Coefficient

OS:Schedule:Compact,
  {e4c3649f-fe3e-425a-a648-8b794f1ae434}, !- Handle
  INFIL_HALF_ON_SCH,                      !- Name
  {c3f59f46-629a-4d1f-bc05-da072b17fc93}, !- Schedule Type Limits Name
  Through: 12/31,                         !- Field 1
  For: Weekdays SummerDesignDay,          !- Field 2
  Until: 05:00,                           !- Field 3
  1.0,                                    !- Field 4
  Until: 24:00,                           !- Field 5
  0.5,                                    !- Field 6
  For: Saturday WinterDesignDay,          !- Field 7
  Until: 05:00,                           !- Field 8
  1.0,                                    !- Field 9
  Until: 24:00,                           !- Field 10
  0.5,                                    !- Field 11
  For: Sunday Holidays AllOtherDays,      !- Field 12
  Until: 05:00,                           !- Field 13
  1.0,                                    !- Field 14
  Until: 24:00,                           !- Field 15
  0.5;                                    !- Field 16

OS:Schedule:Compact,
  {a5a05581-135b-4d1c-abc8-c44127d0b9be}, !- Handle
  ALWAYS_ON,                              !- Name
  {6723feb9-133c-4619-a26a-3fe17fadee56}, !- Schedule Type Limits Name
  Through: 12/31,                         !- Field 1
  For: AllDays,                           !- Field 2
  Until: 24:00,                           !- Field 3
  1;                                      !- Field 4

OS:ScheduleTypeLimits,
  {6723feb9-133c-4619-a26a-3fe17fadee56}, !- Handle
  On/Off,                                 !- Name
  0,                                      !- Lower Limit Value {BasedOnField A4}
  1,                                      !- Upper Limit Value {BasedOnField A4}
  DISCRETE,                               !- Numeric Type
  Availability;                           !- Unit Type

OS:Schedule:Compact,
  {93873355-aa10-4e96-88b7-18538eebe44a}, !- Handle
  BLDG_EQUIP_SCH,                         !- Name
  {c3f59f46-629a-4d1f-bc05-da072b17fc93}, !- Schedule Type Limits Name
  Through: 12/31,                         !- Field 1
  For: Weekday,                           !- Field 2
  Until: 06:00,                           !- Field 3
  0.10,                                   !- Field 4
  Until: 08:00,                           !- Field 5
  0.35,                                   !- Field 6
  Until: 10:00,                           !- Field 7
  0.25,                                   !- Field 8
  Until: 14:00,                           !- Field 9
  0.35,                                   !- Field 10
  Until: 17:00,                           !- Field 11
  0.25,                                   !- Field 12
  Until: 20:00,                           !- Field 13
  0.35,                                   !- Field 14
  Until: 24:00,                           !- Field 15
  0.25,                                   !- Field 16
  For: Saturday,                          !- Field 17
  Until: 06:00,                           !- Field 18
  0.10,                                   !- Field 19
  Until: 08:00,                           !- Field 20
  0.35,                                   !- Field 21
  Until: 10:00,                           !- Field 22
  0.25,                                   !- Field 23
  Until: 14:00,                           !- Field 24
  0.35,                                   !- Field 25
  Until: 17:00,                           !- Field 26
  0.25,                                   !- Field 27
  Until: 20:00,                           !- Field 28
  0.35,                                   !- Field 29
  Until: 24:00,                           !- Field 30
  0.25,                                   !- Field 31
  For: SummerDesignDay,                   !- Field 32
  Until: 24:00,                           !- Field 33
  0.35,                                   !- Field 34
  For: WinterDesignDay,                   !- Field 35
  Until: 24:00,                           !- Field 36
  0.0,                                    !- Field 37
  For: Sunday Holidays AllOtherDays,      !- Field 38
  Until: 06:00,                           !- Field 39
  0.10,                                   !- Field 40
  Until: 08:00,                           !- Field 41
  0.35,                                   !- Field 42
  Until: 10:00,                           !- Field 43
  0.25,                                   !- Field 44
  Until: 14:00,                           !- Field 45
  0.35,                                   !- Field 46
  Until: 17:00,                           !- Field 47
  0.25,                                   !- Field 48
  Until: 20:00,                           !- Field 49
  0.35,                                   !- Field 50
  Until: 24:00,                           !- Field 51
  0.25;                                   !- Field 52

OS:Curve:Quadratic,
  {8a4965d8-1a4a-47ce-825f-9cee50054e55}, !- Handle
  RACK1_RackCondFanCurve2,                !- Name
  0,                                      !- Coefficient1 Constant
  0.0286,                                 !- Coefficient2 x
  0,                                      !- Coefficient3 x**2
  0,                                      !- Minimum Value of x {BasedOnField A2}
  35;                                     !- Maximum Value of x {BasedOnField A2}

OS:Schedule:Compact,
  {1d0b89fd-e725-4461-9f97-abfa9ec25745}, !- Handle
  MinOA_Sched,                            !- Name
  {c3f59f46-629a-4d1f-bc05-da072b17fc93}, !- Schedule Type Limits Name
  Through: 12/31,                         !- Field 1
  For: AllDays,                           !- Field 2
  Until: 01:00,                           !- Field 3
  1.0,                                    !- Field 4
  Until: 05:00,                           !- Field 5
  0.0,                                    !- Field 6
  Until: 24:00,                           !- Field 7
  1.0;                                    !- Field 8

OS:Material,
  {87eb7ddf-a386-4048-a64b-e6e860f66f22}, !- Handle
  Metal Decking,                          !- Name
  MediumSmooth,                           !- Roughness
  0.0015,                                 !- Thickness {m}
  45.006,                                 !- Conductivity {W/m-K}
  7680,                                   !- Density {kg/m3}
  418.4,                                  !- Specific Heat {J/kg-K}
  0.9,                                    !- Thermal Absorptance
  0.7,                                    !- Solar Absorptance
  0.3;                                    !- Visible Absorptance

OS:Curve:Biquadratic,
  {4174ae89-1e35-4fd1-aa30-39dbeb92c9f8}, !- Handle
  Cool-EIR-fT,                            !- Name
  0.28687133,                             !- Coefficient1 Constant
  0.023902164,                            !- Coefficient2 x
  -0.000810648,                           !- Coefficient3 x**2
  0.013458546,                            !- Coefficient4 y
  0.0003389364,                           !- Coefficient5 y**2
  -0.0004870044,                          !- Coefficient6 x*y
  -100,                                   !- Minimum Value of x {BasedOnField A2}
  100,                                    !- Maximum Value of x {BasedOnField A2}
  -100,                                   !- Minimum Value of y {BasedOnField A3}
  100;                                    !- Maximum Value of y {BasedOnField A3}

OS:ElectricEquipment:Definition,
  {bf65cc7d-3c0c-47fb-a422-14dc0e938cc4}, !- Handle
  Kitchen_MiscElec_Equip Definition,      !- Name
  EquipmentLevel,                         !- Design Level Calculation Method
  35000,                                  !- Design Level {W}
  ,                                       !- Watts per Space Floor Area {W/m2}
  ,                                       !- Watts per Person {W/person}
  0.25,                                   !- Fraction Latent
  0.3,                                    !- Fraction Radiant
  0.3;                                    !- Fraction Lost

OS:ElectricEquipment,
  {1a47ec71-4447-4bf0-9a4f-4f0a447b67c7}, !- Handle
  Kitchen_MiscElec_Equip,                 !- Name
  {bf65cc7d-3c0c-47fb-a422-14dc0e938cc4}, !- Electric Equipment Definition Name
  {66f649b8-4db7-4522-aaac-89ec37ab3bdf}, !- Space or SpaceType Name
  {93873355-aa10-4e96-88b7-18538eebe44a}, !- Schedule Name
  ,                                       !- Multiplier
  MiscElec;                               !- End-Use Subcategory

OS:Space,
  {66f649b8-4db7-4522-aaac-89ec37ab3bdf}, !- Handle
  Kitchen,                                !- Name
  {727524df-a2f7-4283-beb5-4be8a055c134}, !- Space Type Name
  ,                                       !- Default Construction Set Name
  ,                                       !- Default Schedule Set Name
  0,                                      !- Direction of Relative North {deg}
  0,                                      !- X Origin {m}
  0,                                      !- Y Origin {m}
  0,                                      !- Z Origin {m}
  {d6c81491-5cc7-4f6d-9e36-b5cbfd790846}, !- Building Story Name
  {cf34021c-2cad-4323-9747-8ccfb63d280d}, !- Thermal Zone Name
  Yes,                                    !- Part of Total Floor Area
  {f35bfcc3-dcd4-4c9d-b5f2-d6b8edfced62}; !- Design Specification Outdoor Air Object Name

OS:ThermostatSetpoint:DualSetpoint,
  {cb40abdf-b1bd-432f-bf07-08659f3455bc}, !- Handle
  {e915ac57-0830-4731-bc7c-dc14c7a58ce5}, !- Name
  {bba20e7e-ab77-42b2-a6fc-8bd4efed3f36}, !- Heating Setpoint Temperature Schedule Name
  {51599d5f-18dc-4038-b91a-dbd58a91fa19}; !- Cooling Setpoint Temperature Schedule Name

OS:Schedule:Compact,
  {bba20e7e-ab77-42b2-a6fc-8bd4efed3f36}, !- Handle
  HTGSETP_KITCHEN_SCH,                    !- Name
  {f59215fe-ec6c-4d92-b91a-1e573e3dd556}, !- Schedule Type Limits Name
  Through: 12/31,                         !- Field 1
  For: SummerDesignDay,                   !- Field 2
  Until: 24:00,                           !- Field 3
  15.6,                                   !- Field 4
  For: WinterDesignDay,                   !- Field 5
  Until: 24:00,                           !- Field 6
  19,                                     !- Field 7
  For: AllOtherDays,                      !- Field 8
  Until: 01:00,                           !- Field 9
  19,                                     !- Field 10
  Until: 05:00,                           !- Field 11
  15.6,                                   !- Field 12
  Until: 24:00,                           !- Field 13
  19;                                     !- Field 14

OS:ElectricEquipment:Definition,
  {a0172be1-8bbd-4ce6-857b-653ffafcbe8e}, !- Handle
  Kitchen_ExhFan_Equip Definition,        !- Name
  EquipmentLevel,                         !- Design Level Calculation Method
  577,                                    !- Design Level {W}
  ,                                       !- Watts per Space Floor Area {W/m2}
  ,                                       !- Watts per Person {W/person}
  0,                                      !- Fraction Latent
  0,                                      !- Fraction Radiant
  1;                                      !- Fraction Lost

OS:ElectricEquipment,
  {d9b8918f-d816-4274-83dc-62dcb2eda8cd}, !- Handle
  Kitchen_ExhFan_Equip,                   !- Name
  {a0172be1-8bbd-4ce6-857b-653ffafcbe8e}, !- Electric Equipment Definition Name
  {66f649b8-4db7-4522-aaac-89ec37ab3bdf}, !- Space or SpaceType Name
  {c039bd4b-51bc-4654-b5d9-d764d20b50f4}, !- Schedule Name
  ,                                       !- Multiplier
  KitchenExhFan;                          !- End-Use Subcategory

OS:Schedule:Compact,
  {c039bd4b-51bc-4654-b5d9-d764d20b50f4}, !- Handle
  Kitchen_Exhaust_SCH,                    !- Name
  {6723feb9-133c-4619-a26a-3fe17fadee56}, !- Schedule Type Limits Name
  Through: 12/31,                         !- Field 1
  For: AllDays,                           !- Field 2
  Until: 01:00,                           !- Field 3
  1.0,                                    !- Field 4
  Until: 05:00,                           !- Field 5
  0.0,                                    !- Field 6
  Until: 24:00,                           !- Field 7
  1.0;                                    !- Field 8

OS:Curve:Biquadratic,
  {c77c7acb-729e-4874-ab95-deae56cebf24}, !- Handle
  Measured_CoolCStandard10Ton_CapFT,      !- Name
  0.52357,                                !- Coefficient1 Constant
  0.03478,                                !- Coefficient2 x