
OS:Version,
  {96ae5e68-e63e-4769-b48a-51d6e51c1596}, !- Handle
  1.8.5;                                  !- Version Identifier

OS:Site,
  {61e47f69-7ffe-4fd7-8524-a0a060231796}, !- Handle
  USA IL-CHICAGO-OHARE,                   !- Name
  41.77,                                  !- Latitude {deg}
  -87.75,                                 !- Longitude {deg}
  -6,                                     !- Time Zone {hr}
  190,                                    !- Elevation {m}
  City;                                   !- Terrain

OS:SimulationControl,
  {a3390396-cff1-448f-bf49-2699540679e2}, !- Handle
  Yes,                                    !- Do Zone Sizing Calculation
  Yes,                                    !- Do System Sizing Calculation
  Yes,                                    !- Do Plant Sizing Calculation
  No,                                     !- Run Simulation for Sizing Periods
  Yes,                                    !- Run Simulation for Weather File Run Periods
  0.04,                                   !- Loads Convergence Tolerance Value
  0.2,                                    !- Temperature Convergence Tolerance Value {deltaC}
  FullInteriorAndExterior,                !- Solar Distribution
  25,                                     !- Maximum Number of Warmup Days
  6;                                      !- Minimum Number of Warmup Days

OS:Construction,
  {4747f200-6498-4b2a-b49d-b627be3d8018}, !- Handle
  DropCeiling,                            !- Name
  ,                                       !- Surface Rendering Name
  {11b21d46-db78-44eb-bd09-ce084ba675bc}; !- Layer 1

OS:Material,
  {11b21d46-db78-44eb-bd09-ce084ba675bc}, !- Handle
  Std AC02,                               !- Name
  MediumSmooth,                           !- Roughness
  0.0127,                                 !- Thickness {m}
  0.057,                                  !- Conductivity {W/m-K}
  288,                                    !- Density {kg/m3}
  1339,                                   !- Specific Heat {J/kg-K}
  0.9,                                    !- Thermal Absorptance
  0.7,                                    !- Solar Absorptance
  0.2;                                    !- Visible Absorptance

OS:ScheduleTypeLimits,
  {1e36dec1-b8ac-435f-a235-c21a156fb443}, !- Handle
  {4a87eedc-a7d3-4da9-8e9c-d5a6bf031a0e}; !- Name

OS:Schedule:Compact,
  {778c0d2e-4e15-4c67-a187-25330ce5f68d}, !- Handle
  Kitchen_Case:2_SELFCONTAINEDDISPLAYCASE_CaseStockingSched, !- Name
  ,                                       !- Schedule Type Limits Name
  Through: 12/31,                         !- Field 1
  For:AllDays,                            !- Field 2
  Until: 6:00,                            !- Field 3
  0.0,                                    !- Field 4
  Until: 7:00,                            !- Field 5
  50.0,                                   !- Field 6
  Until: 9:00,                            !- Field 7
  70.0,                                   !- Field 8
  Until: 10:00,                           !- Field 9
  80.0,                                   !- Field 10
  Until: 11:00,                           !- Field 11
  70.0,                                   !- Field 12
  Until: 13:00,                           !- Field 13
  50.0,                                   !- Field 14
  Until: 14:00,                           !- Field 15
  80.0,                                   !- Field 16
  Until: 15:00,                           !- Field 17
  90.0,                                   !- Field 18
  Until: 16:00,                           !- Field 19
  80.0,                                   !- Field 20
  Until: 24:00,                           !- Field 21
  0.0;                                    !- Field 22

OS:ScheduleTypeLimits,
  {2e0d16d3-f30f-44ea-9584-1be27a1c07db}, !- Handle
  {6b41e3e3-9d97-4733-8ecd-3743aa3e8110}; !- Name

OS:Curve:Cubic,
  {b606d71b-f4a9-42cb-8975-d196d4d54b9d}, !- Handle
  Kitchen_Case:1_WALKINFREEZERSingleShelfHorizontal_LatentEnergyMult, !- Name
  0.020376,                               !- Coefficient1 Constant
  0.00024378,                             !- Coefficient2 x
  1.14e-005,                              !- Coefficient3 x**2
  1.811e-007,                             !- Coefficient4 x**3
  -35,                                    !- Minimum Value of x {BasedOnField A2}
  20;                                     !- Maximum Value of x {BasedOnField A2}

OS:Construction,
  {44e396d3-6442-4540-8a9f-f362b7148b23}, !- Handle
  AIR-WALL,                               !- Name
  ,                                       !- Surface Rendering Name
  {c45da461-f632-4d4b-8c46-cc4c62846fe3}; !- Layer 1

OS:Material:NoMass,
  {c45da461-f632-4d4b-8c46-cc4c62846fe3}, !- Handle
  MAT-AIR-WALL,                           !- Name
  Rough,                                  !- Roughness
  0.2079491,                              !- Thermal Resistance {m2-K/W}
  0.9,                                    !- Thermal Absorptance
  0.7;                                    !- Solar Absorptance

OS:RunPeriod,
  {2ad55c5a-fcac-479b-9829-d0aac74e853d}, !- Handle
  Run Period 1,                           !- Name
  1,                                      !- Begin Month
  1,                                      !- Begin Day of Month
  12,                                     !- End Month
  31,                                     !- End Day of Month
  No,                                     !- Use Weather File Holidays and Special Days
  No,                                     !- Use Weather File Daylight Saving Period
  No,                                     !- Apply Weekend Holiday Rule
  Yes,                                    !- Use Weather File Rain Indicators
  Yes,                                    !- Use Weather File Snow Indicators
  1;                                      !- Number of Times Runperiod to be Repeated

OS:YearDescription,
  {49eae69d-2283-44a7-bcf3-bcbd885a70f8}, !- Handle
  ,                                       !- Calendar Year
  Sunday;                                 !- Day of Week for Start Day

OS:Schedule:Compact,
  {7400757e-c041-4629-ac1f-80e715c1bde6}, !- Handle
  Dual Zone Control Type Sched,           !- Name
  {d1bb069d-f986-426f-8b18-6b23c454c87d}, !- Schedule Type Limits Name
  Through: 12/31,                         !- Field 1
  For: AllDays,                           !- Field 2
  Until: 24:00,                           !- Field 3
  4;                                      !- Field 4

OS:ScheduleTypeLimits,
  {d1bb069d-f986-426f-8b18-6b23c454c87d}, !- Handle
  Control Type,                           !- Name
  0,                                      !- Lower Limit Value {BasedOnField A4}
  4,                                      !- Upper Limit Value {BasedOnField A4}
  DISCRETE,                               !- Numeric Type
  ControlMode;                            !- Unit Type

OS:Material,
  {3e93893b-5481-498f-8ba5-4db2ab7feb0e}, !- Handle
  Roof Membrane,                          !- Name
  VeryRough,                              !- Roughness
  0.0095,                                 !- Thickness {m}
  0.16,                                   !- Conductivity {W/m-K}
  1121.29,                                !- Density {kg/m3}
  1460,                                   !- Specific Heat {J/kg-K}
  0.9,                                    !- Thermal Absorptance
  0.7,                                    !- Solar Absorptance
  0.7;                                    !- Visible Absorptance

OS:Meter,
  {48d9ed88-7ee3-4b13-91a2-fc94ae6bb47a}, !- Handle
  Fans:Electricity,                       !- Name
  hourly,                                 !- Reporting Frequency
  False,                                  !- Meter File Only
  False;                                  !- Cumulative

OS:SubSurface,
  {94191405-c9a0-413d-95e4-39e858cd74ee}, !- Handle
  Dining_Wall_East_Window,                !- Name
  FixedWindow,                            !- Sub Surface Type
  {52a3fa12-2ede-4220-b917-6371dcb9f676}, !- Construction Name
  {b5c9a09b-034b-44e0-803d-63ed764dbb59}, !- Surface Name
  ,                                       !- Outside Boundary Condition Object
  ,                                       !- View Factor to Ground
  ,                                       !- Shading Control Name
  ,                                       !- Frame and Divider Name
  1,                                      !- Multiplier
  ,                                       !- Number of Vertices
  15.2428, 0.254, 1.9817,                 !- X,Y,Z Vertex 1 {m}
  15.2428, 0.254, 1.0671,                 !- X,Y,Z Vertex 2 {m}
  15.2428, 7.3673, 1.0671,                !- X,Y,Z Vertex 3 {m}
  15.2428, 7.3673, 1.9817;                !- X,Y,Z Vertex 4 {m}

OS:Construction,
  {52a3fa12-2ede-4220-b917-6371dcb9f676}, !- Handle
  Window Non-res Fixed,                   !- Name
  ,                                       !- Surface Rendering Name
  {eb152613-3a40-4420-b4df-6a1d2c25c328}; !- Layer 1

OS:WindowMaterial:SimpleGlazingSystem,
  {eb152613-3a40-4420-b4df-6a1d2c25c328}, !- Handle
  NonRes Fixed Assembly Window,           !- Name
  3.23646,                                !- U-Factor {W/m2-K}
  0.39;                                   !- Solar Heat Gain Coefficient

OS:Surface,
  {b5c9a09b-034b-44e0-803d-63ed764dbb59}, !- Handle
  Dining_Wall_East,                       !- Name
  Wall,                                   !- Surface Type
  {d5ca53cb-c59d-4d2c-a3ae-ef2d6275b19b}, !- Construction Name
  {0b6cd779-3c2e-4f6d-b09a-4dda4469cce7}, !- Space Name
  Outdoors,                               !- Outside Boundary Condition
  ,                                       !- Outside Boundary Condition Object
  SunExposed,                             !- Sun Exposure
  WindExposed,                            !- Wind Exposure
  ,                                       !- View Factor to Ground
  ,                                       !- Number of Vertices
  15.2428, 0, 3.0488,                     !- X,Y,Z Vertex 1 {m}
  15.2428, 0, 0,                          !- X,Y,Z Vertex 2 {m}
  15.2428, 7.6214, 0,                     !- X,Y,Z Vertex 3 {m}
  15.2428, 7.6214, 3.0488;                !- X,Y,Z Vertex 4 {m}

OS:Construction,
  {d5ca53cb-c59d-4d2c-a3ae-ef2d6275b19b}, !- Handle
  Wood Frame Non-res Ext Wall,            !- Name
  ,                                       !- Surface Rendering Name
  {7acd27c1-a368-47c7-a1c4-68ff8946d5c3}, !- Layer 1
  {b0b51528-ae5b-49d2-96f8-37688fe11702}, !- Layer 2
  {8817c02e-4a15-411e-ba49-2da5f6694b3d}; !- Layer 3

OS:Material,
  {7acd27c1-a368-47c7-a1c4-68ff8946d5c3}, !- Handle
  Wood Siding,                            !- Name
  MediumSmooth,                           !- Roughness
  0.01,                                   !- Thickness {m}
  0.11,                                   !- Conductivity {W/m-K}
  544.62,                                 !- Density {kg/m3}
  1210,                                   !- Specific Heat {J/kg-K}
  0.9,                                    !- Thermal Absorptance
  0.78,                                   !- Solar Absorptance
  0.78;                                   !- Visible Absorptance

OS:Material,
  {b0b51528-ae5b-49d2-96f8-37688fe11702}, !- Handle
  Wood Frame NonRes Wall Insulation,      !- Name
  MediumRough,                            !- Roughness
  0.0812847864409827,                     !- Thickness {m}
  0.049,                                  !- Conductivity {W/m-K}
  265,                                    !- Density {kg/m3}
  836.8,                                  !- Specific Heat {J/kg-K}
  0.9,                                    !- Thermal Absorptance
  0.7,                                    !- Solar Absorptance
  0.7;                                    !- Visible Absorptance

OS:Material,
  {8817c02e-4a15-411e-ba49-2da5f6694b3d}, !- Handle
  1/2IN Gypsum,                           !- Name
  Smooth,                                 !- Roughness
  0.0127,                                 !- Thickness {m}
  0.16,                                   !- Conductivity {W/m-K}
  784.9,                                  !- Density {kg/m3}
  830,                                    !- Specific Heat {J/kg-K}
  0.9,                                    !- Thermal Absorptance
  0.92,                                   !- Solar Absorptance
  0.92;                                   !- Visible Absorptance

OS:Space,
  {0b6cd779-3c2e-4f6d-b09a-4dda4469cce7}, !- Handle
  Dining,                                 !- Name
  {e8a63f10-b76a-4c2b-af98-1351f3469515}, !- Space Type Name
  ,                                       !- Default Construction Set Name
  ,                                       !- Default Schedule Set Name
  0,                                      !- Direction of Relative North {deg}
  0,                                      !- X Origin {m}
  0,                                      !- Y Origin {m}
  0,                                      !- Z Origin {m}
  {c59eb8ee-ea75-4ed7-a9d4-98cfce82a255}, !- Building Story Name
  {5b9c6919-bca4-4ab2-8df7-b23ec05e6151}, !- Thermal Zone Name
  Yes,                                    !- Part of Total Floor Area
  {a932fb50-efce-42d6-a65e-901863dff6b4}; !- Design Specification Outdoor Air Object Name

OS:ThermostatSetpoint:DualSetpoint,
  {a35261a9-c046-4359-bdbb-64314173eafe}, !- Handle
  {efd60514-9576-4cd2-b31f-7e5c620c70af}, !- Name
  {7d9a8bf5-c4b4-4e08-a613-f017926e295d}, !- Heating Setpoint Temperature Schedule Name
  {22c7ab54-6a41-4657-ae64-629f2cfbdd3e}; !- Cooling Setpoint Temperature Schedule Name

OS:Schedule:Compact,
  {7d9a8bf5-c4b4-4e08-a613-f017926e295d}, !- Handle
  HTGSETP_SCH,                            !- Name
  {f0103fa2-3b81-44e9-9ea8-6ce258f6819d}, !- Schedule Type Limits Name
  Through: 12/31,                         !- Field 1
  For: SummerDesignDay,                   !- Field 2
  Until: 24:00,                           !- Field 3
  15.6,                                   !- Field 4
  For: WinterDesignDay,                   !- Field 5
  Until: 24:00,                           !- Field 6
  21,                                     !- Field 7
  For: AllOtherDays,                      !- Field 8
  Until: 01:00,                           !- Field 9
  21,                                     !- Field 10
  Until: 05:00,                           !- Field 11
  15.6,                                   !- Field 12
  Until: 24:00,                           !- Field 13
  21;                                     !- Field 14

OS:ScheduleTypeLimits,
  {f0103fa2-3b81-44e9-9ea8-6ce258f6819d}, !- Handle
  Temperature,                            !- Name
  -60,                                    !- Lower Limit Value {BasedOnField A4}
  200,                                    !- Upper Limit Value {BasedOnField A4}
  CONTINUOUS,                             !- Numeric Type
  Temperature;                            !- Unit Type

OS:Schedule:Compact,
  {22c7ab54-6a41-4657-ae64-629f2cfbdd3e}, !- Handle
  CLGSETP_SCH,                            !- Name
  {f0103fa2-3b81-44e9-9ea8-6ce258f6819d}, !- Schedule Type Limits Name
  Through: 12/31,                         !- Field 1
  For: WinterDesignDay,                   !- Field 2
  Until: 24:00,                           !- Field 3
  30,                                     !- Field 4
  For: AllOtherDays,                      !- Field 5
  Until: 01:00,                           !- Field 6
  24,                                     !- Field 7
  Until: 05:00,                           !- Field 8
  30,                                     !- Field 9
  Until: 24:00,                           !- Field 10
  24;                                     !- Field 11

OS:Meter,
  {2b8ff8e9-da14-40f5-a698-77c992618fdf}, !- Handle
  Humidifier:Electricity,                 !- Name
  hourly,                                 !- Reporting Frequency
  False,                                  !- Meter File Only
  False;                                  !- Cumulative

OS:Curve:Biquadratic,
  {be1ca814-a0d9-4753-9d45-4d96de62033b}, !- Handle
  Measured_LowSpeedCoolEIRLSFT,           !- Name
  1.1389,                                 !- Coefficient1 Constant
  -0.04518,                               !- Coefficient2 x
  0.0014298,                              !- Coefficient3 x**2
  0.006044,                               !- Coefficient4 y
  0.0006745,                              !- Coefficient5 y**2
  -0.0012325,                             !- Coefficient6 x*y
  11.1,                                   !- Minimum Value of x {BasedOnField A2}
  29.4,                                   !- Maximum Value of x {BasedOnField A2}
  10,                                     !- Minimum Value of y {BasedOnField A3}
  50.3;                                   !- Maximum Value of y {BasedOnField A3}

OS:ShadowCalculation,
  {fe0d87ed-0620-4f95-a475-cb5fb4c182ba}, !- Handle
  15000,                                  !- Calculation Frequency
  15000;                                  !- Maximum Figures in Shadow Overlap Calculations

OS:Surface,
  {60dad3f7-2dd8-4be6-a326-e67564071f08}, !- Handle
  Dining_Floor,                           !- Name
  Floor,                                  !- Surface Type
  {ed32baa4-94eb-4416-acc6-4fc7a3d28e10}, !- Construction Name
  {0b6cd779-3c2e-4f6d-b09a-4dda4469cce7}, !- Space Name
  Ground,                                 !- Outside Boundary Condition
  ,                                       !- Outside Boundary Condition Object
  NoSun,                                  !- Sun Exposure
  NoWind,                                 !- Wind Exposure
  ,                                       !- View Factor to Ground
  ,                                       !- Number of Vertices
  15.2428, 7.6214, 0,                     !- X,Y,Z Vertex 1 {m}
  15.2428, 0, 0,                          !- X,Y,Z Vertex 2 {m}
  0, 0, 0,                                !- X,Y,Z Vertex 3 {m}
  0, 7.6214, 0;                           !- X,Y,Z Vertex 4 {m}

OS:Construction,
  {ed32baa4-94eb-4416-acc6-4fc7a3d28e10}, !- Handle
  ext-slab,                               !- Name
  ,                                       !- Surface Rendering Name
  {08740cf1-4ffe-47da-a55c-0bd4a71fc5bd}; !- Layer 1

OS:Material,
  {08740cf1-4ffe-47da-a55c-0bd4a71fc5bd}, !- Handle
  HW CONCRETE,                            !- Name
  Rough,                                  !- Roughness
  0.1016,                                 !- Thickness {m}
  1.311,                                  !- Conductivity {W/m-K}
  2240,                                   !- Density {kg/m3}
  836.8,                                  !- Specific Heat {J/kg-K}
  0.9,                                    !- Thermal Absorptance
  0.7,                                    !- Solar Absorptance
  0.7;                                    !- Visible Absorptance

OS:Meter,
  {f3d4527b-622b-4864-b74d-e65ab292a69b}, !- Handle
  InteriorEquipment:Electricity,          !- Name
  hourly,                                 !- Reporting Frequency
  False,                                  !- Meter File Only
  False;                                  !- Cumulative

OS:Curve:Quadratic,
  {a92d56c6-4892-4843-8edb-d3027b251356}, !- Handle
  RACK2_RackCOPfTCurve,                   !- Name
  1,                                      !- Coefficient1 Constant
  0,                                      !- Coefficient2 x
  0,                                      !- Coefficient3 x**2
  0,                                      !- Minimum Value of x {BasedOnField A2}
  50;                                     !- Maximum Value of x {BasedOnField A2}

OS:Schedule:Compact,
  {4ff8c182-3528-4257-a53d-b2d81c9e018b}, !- Handle
  ALWAYS_ON,                              !- Name
  {6664587a-3bf3-4dee-bdd2-c98bbff7ffd4}, !- Schedule Type Limits Name
  Through: 12/31,                         !- Field 1
  For: AllDays,                           !- Field 2
  Until: 24:00,                           !- Field 3
  1;                                      !- Field 4

OS:ScheduleTypeLimits,
  {6664587a-3bf3-4dee-bdd2-c98bbff7ffd4}, !- Handle
  On/Off,                                 !- Name
  0,                                      !- Lower Limit Value {BasedOnField A4}
  1,                                      !- Upper Limit Value {BasedOnField A4}
  DISCRETE,                               !- Numeric Type
  Availability;                           !- Unit Type

OS:Curve:Quadratic,
  {da0a09a3-f860-45e5-8400-50fa1359b49e}, !- Handle
  No_PLR_Degredation,                     !- Name
  1,                                      !- Coefficient1 Constant
  0,                                      !- Coefficient2 x
  0,                                      !- Coefficient3 x**2
  0,                                      !- Minimum Value of x {BasedOnField A2}
  1;                                      !- Maximum Value of x {BasedOnField A2}

OS:Material,
  {fb56a709-6ac5-4213-80d7-f615269c0ac2}, !- Handle
  MAT-CC05 4 HW CONCRETE,                 !- Name
  Rough,                                  !- Roughness
  0.1016,                                 !- Thickness {m}
  1.311,                                  !- Conductivity {W/m-K}
  2240,                                   !- Density {kg/m3}
  836.8,                                  !- Specific Heat {J/kg-K}
  0.9,                                    !- Thermal Absorptance
  0.7,                                    !- Solar Absorptance
  0.7;                                    !- Visible Absorptance

OS:Space,
  {91818984-009d-46fe-9f27-16af23158137}, !- Handle
  Kitchen,                                !- Name
  {3891c963-0b31-44d3-a49e-ed54509ab772}, !- Space Type Name
  ,                                       !- Default Construction Set Name
  ,                                       !- Default Schedule Set Name
  0,                                      !- Direction of Relative North {deg}
  0,                                      !- X Origin {m}
  0,                                      !- Y Origin {m}
  0,                                      !- Z Origin {m}
  {c59eb8ee-ea75-4ed7-a9d4-98cfce82a255}, !- Building Story Name
  {91137cd1-000a-4220-9941-ec58fac51a4a}, !- Thermal Zone Name
  Yes,                                    !- Part of Total Floor Area
  {b0eea13b-4f08-48ab-a1e9-1745c5004f3c}; !- Design Specification Outdoor Air Object Name

OS:ThermostatSetpoint:DualSetpoint,
  {499fea8d-3113-4535-b6b6-aefd8a3d28bb}, !- Handle
  {e845446e-366a-4d7c-9861-766c00828437}, !- Name
  {f79f67b2-ffce-4f0f-bc8c-702df4fdabd5}, !- Heating Setpoint Temperature Schedule Name
  {3aadbe8d-3457-4c06-88c5-0c03daa78177}; !- Cooling Setpoint Temperature Schedule Name

OS:Schedule:Compact,
  {f79f67b2-ffce-4f0f-bc8c-702df4fdabd5}, !- Handle
  HTGSETP_KITCHEN_SCH,                    !- Name
  {f0103fa2-3b81-44e9-9ea8-6ce258f6819d}, !- Schedule Type Limits Name
  Through: 12/31,                         !- Field 1
  For: SummerDesignDay,                   !- Field 2
  Until: 24:00,                           !- Field 3
  15.6,                                   !- Field 4
  For: WinterDesignDay,                   !- Field 5
  Until: 24:00,                           !- Field 6
  19,                                     !- Field 7
  For: AllOtherDays,                      !- Field 8
  Until: 01:00,                           !- Field 9
  19,                                     !- Field 10
  Until: 05:00,                           !- Field 11
  15.6,                                   !- Field 12
  Until: 24:00,                           !- Field 13
  19;                                     !- Field 14

OS:Schedule:Compact,
  {3aadbe8d-3457-4c06-88c5-0c03daa78177}, !- Handle
  CLGSETP_KITCHEN_SCH,                    !- Name
  {f0103fa2-3b81-44e9-9ea8-6ce258f6819d}, !- Schedule Type Limits Name
  Through: 12/31,                         !- Field 1
  For: WinterDesignDay,                   !- Field 2
  Until: 24:00,                           !- Field 3
  30,                                     !- Field 4
  For: AllOtherDays,                      !- Field 5
  Until: 01:00,                           !- Field 6
  26,                                     !- Field 7
  Until: 05:00,                           !- Field 8
  30,                                     !- Field 9
  Until: 24:00,                           !- Field 10
  26;                                     !- Field 11

OS:Surface,
  {83e58f93-9ff5-4920-bdf4-22c5ba70b29e}, !- Handle
  east-roof,                              !- Name
  RoofCeiling,                            !- Surface Type
  {4f718081-8ba3-4880-9fff-74bed9ab84c6}, !- Construction Name
  {305fb2ef-603a-4ab0-957a-7ba3def63d47}, !- Space Name
  Outdoors,                               !- Outside Boundary Condition
  ,                                       !- Outside Boundary Condition Object
  SunExposed,                             !- Sun Exposure
  WindExposed,                            !- Wind Exposure
  ,                                       !- View Factor to Ground
  ,                                       !- Number of Vertices
  12.7023, 7.6214, 2.5405,                !- X,Y,Z Vertex 1 {m}
  15.2428, 0, 0,                          !- X,Y,Z Vertex 2 {m}
  15.2428, 15.2428, 0;                    !- X,Y,Z Vertex 3 {m}

OS:Construction,
  {4f718081-8ba3-4880-9fff-74bed9ab84c6}, !- Handle
  Attic Non-res Roof,                     !- Name
  ,                                       !- Surface Rendering Name
  {3e93893b-5481-498f-8ba5-4db2ab7feb0e}, !- Layer 1
  {89f12501-0eb5-47eb-ae1e-6a437ef7d5ed}; !- Layer 2

OS:Material,
  {89f12501-0eb5-47eb-ae1e-6a437ef7d5ed}, !- Handle
  Metal Decking,                          !- Name
  MediumSmooth,                           !- Roughness
  0.0015,                                 !- Thickness {m}
  45.006,                                 !- Conductivity {W/m-K}
  7680,                                   !- Density {kg/m3}
  418.4,                                  !- Specific Heat {J/kg-K}
  0.9,                                    !- Thermal Absorptance
  0.7,                                    !- Solar Absorptance
  0.3;                                    !- Visible Absorptance

OS:Space,
  {305fb2ef-603a-4ab0-957a-7ba3def63d47}, !- Handle
  attic,                                  !- Name
  {2ebea4a6-4187-4302-9690-66a9b223e574}, !- Space Type Name
  ,                                       !- Default Construction Set Name
  ,                                       !- Default Schedule Set Name
  0,                                      !- Direction of Relative North {deg}
  0,                                      !- X Origin {m}
  0,                                      !- Y Origin {m}
  3.0488,                                 !- Z Origin {m}
  {012091fe-b3ef-4ca3-8804-aa3e9b737d40}, !- Building Story Name
  ,                                       !- Thermal Zone Name
  No;                                     !- Part of Total Floor Area

OS:Meter,
  {d6e90473-ae5b-482e-8799-078704782498}, !- Handle
  Gas:Facility,                           !- Name
  hourly,                                 !- Reporting Frequency
  False,                                  !- Meter File Only
  False;                                  !- Cumulative

OS:Schedule:Compact,
  {00d87f44-ccac-46ef-a5ef-f69b043e6a26}, !- Handle
  Kitchen Water Equipment Temp Sched,     !- Name
  {f0103fa2-3b81-44e9-9ea8-6ce258f6819d}, !- Schedule Type Limits Name
  Through: 12/31,                         !- Field 1
  For: AllDays,                           !- Field 2
  Until: 24:00,                           !- Field 3
  49.0;                                   !- Field 4

OS:Schedule:Compact,
  {226cf736-67b3-4926-a9df-eaaf8d07e794}, !- Handle
  Kitchen_Case:1_WALKINFREEZER_WalkInStockingSched, !- Name
  ,                                       !- Schedule Type Limits Name
  Through: 12/31,                         !- Field 1
  For: Tuesday Friday,                    !- Field 2
  Until: 4:00,                            !- Field 3
  0.0,                                    !- Field 4
  Until: 5:00,                            !- Field 5
  725.0,                                  !- Field 6
  Until: 6:00,                            !- Field 7
  417.0,                                  !- Field 8
  Until: 7:00,                            !- Field 9
  290.0,                                  !- Field 10
  Until: 24:00,                           !- Field 11
  0.0,                                    !- Field 12
  For: AllOtherDays,                      !- Field 13
  Until: 4:00,                            !- Field 14
  0.0,                                    !- Field 15
  Until: 5:00,                            !- Field 16
  125.0,                                  !- Field 17
  Until: 6:00,                            !- Field 18
  117.0,                                  !- Field 19
  Until: 7:00,                            !- Field 20
  90.0,                                   !- Field 21
  Until: 19:00,                           !- Field 22
  0.0,                                    !- Field 23
  Until: 20:00,                           !- Field 24
  125.0,                                  !- Field 25
  Until: 21:00,                           !- Field 26
  117.0,                                  !- Field 27
  Until: 22:00,                           !- Field 28
  90.0,                                   !- Field 29
  Until: 24:00,                           !- Field 30
  0.0;                                    !- Field 31

OS:ScheduleTypeLimits,
  {2af13781-b16e-4097-8850-9a256d5967ee}, !- Handle
  {73643845-a4d9-4e9b-86c2-a33dd3a14066}; !- Name

OS:Surface,
  {c1fb778f-347b-43bd-bc74-16269548a8ef}, !- Handle
  Kitchen_Wall_North,                     !- Name
  Wall,                                   !- Surface Type
  {d5ca53cb-c59d-4d2c-a3ae-ef2d6275b19b}, !- Construction Name