
OS:Version,
  {d45b5702-6587-4d57-b324-369c21cd483b}, !- Handle
  1.8.0;                                  !- Version Identifier

OS:Site,
  {a00a9d79-b259-4290-9559-47dd5810056b}, !- Handle
  USA IL-CHICAGO-OHARE,                   !- Name
  41.77,                                  !- Latitude {deg}
  -87.75,                                 !- Longitude {deg}
  -6,                                     !- Time Zone {hr}
  190,                                    !- Elevation {m}
  City;                                   !- Terrain

OS:SimulationControl,
  {5697d2dd-fafe-4626-8a68-d47b37935ffb}, !- Handle
  Yes,                                    !- Do Zone Sizing Calculation
  Yes,                                    !- Do System Sizing Calculation
  Yes,                                    !- Do Plant Sizing Calculation
  No,                                     !- Run Simulation for Sizing Periods
  Yes,                                    !- Run Simulation for Weather File Run Periods
  0.04,                                   !- Loads Convergence Tolerance Value
  0.2,                                    !- Temperature Convergence Tolerance Value {deltaC}
  FullInteriorAndExterior,                !- Solar Distribution
  25,                                     !- Maximum Number of Warmup Days
  6;                                      !- Minimum Number of Warmup Days

OS:Space,
  {510bbd60-6092-4ceb-9225-c4b853f45539}, !- Handle
  Kitchen,                                !- Name
  {4d7197ae-d480-4525-8bc3-40bf0020f491}, !- Space Type Name
  ,                                       !- Default Construction Set Name
  ,                                       !- Default Schedule Set Name
  0,                                      !- Direction of Relative North {deg}
  0,                                      !- X Origin {m}
  0,                                      !- Y Origin {m}
  0,                                      !- Z Origin {m}
  {43c3e9c1-f25f-4c0e-b950-67583b161ac8}, !- Building Story Name
  {c739442f-5138-43a3-a346-a07d1da5d1cf}, !- Thermal Zone Name
  Yes,                                    !- Part of Total Floor Area
  {93e81c27-3c6f-4913-9a01-0c3f8aeefbaf}; !- Design Specification Outdoor Air Object Name

OS:ThermostatSetpoint:DualSetpoint,
  {a8e23865-f47c-43c0-ab20-0c7dcbcd6f36}, !- Handle
  {4d897563-7e55-4248-93b1-6c95b473b95a}, !- Name
  {735afa45-c20b-4e05-af97-637108a8365a}, !- Heating Setpoint Temperature Schedule Name
  {70b93420-5994-4fd1-8b66-75db3c80306d}; !- Cooling Setpoint Temperature Schedule Name

OS:Schedule:Compact,
  {735afa45-c20b-4e05-af97-637108a8365a}, !- Handle
  HTGSETP_KITCHEN_SCH,                    !- Name
  {fe5cdf2f-8eed-4073-8220-0fb11085a465}, !- Schedule Type Limits Name
  Through: 12/31,                         !- Field 1
  For: SummerDesignDay,                   !- Field 2
  Until: 24:00,                           !- Field 3
  15.6,                                   !- Field 4
  For: WinterDesignDay,                   !- Field 5
  Until: 24:00,                           !- Field 6
  19,                                     !- Field 7
  For: AllOtherDays,                      !- Field 8
  Until: 01:00,                           !- Field 9
  19,                                     !- Field 10
  Until: 05:00,                           !- Field 11
  15.6,                                   !- Field 12
  Until: 24:00,                           !- Field 13
  19;                                     !- Field 14

OS:ScheduleTypeLimits,
  {fe5cdf2f-8eed-4073-8220-0fb11085a465}, !- Handle
  Temperature,                            !- Name
  -60,                                    !- Lower Limit Value {BasedOnField A4}
  200,                                    !- Upper Limit Value {BasedOnField A4}
  CONTINUOUS,                             !- Numeric Type
  Temperature;                            !- Unit Type

OS:Schedule:Compact,
  {70b93420-5994-4fd1-8b66-75db3c80306d}, !- Handle
  CLGSETP_KITCHEN_SCH,                    !- Name
  {fe5cdf2f-8eed-4073-8220-0fb11085a465}, !- Schedule Type Limits Name
  Through: 12/31,                         !- Field 1
  For: WinterDesignDay,                   !- Field 2
  Until: 24:00,                           !- Field 3
  30,                                     !- Field 4
  For: AllOtherDays,                      !- Field 5
  Until: 01:00,                           !- Field 6
  26,                                     !- Field 7
  Until: 05:00,                           !- Field 8
  30,                                     !- Field 9
  Until: 24:00,                           !- Field 10
  26;                                     !- Field 11

OS:Meter,
  {105190af-257f-4a84-a187-3937fc200444}, !- Handle
  Cooling:Electricity,                    !- Name
  hourly,                                 !- Reporting Frequency
  False,                                  !- Meter File Only
  False;                                  !- Cumulative

OS:Schedule:Compact,
  {1f867cca-0069-4a70-9c77-cc1c61389d42}, !- Handle
  Kitchen_Case:2_SELFCONTAINEDDISPLAYCASE_CaseStockingSched, !- Name
  ,                                       !- Schedule Type Limits Name
  Through: 12/31,                         !- Field 1
  For:AllDays,                            !- Field 2
  Until: 6:00,                            !- Field 3
  0.0,                                    !- Field 4
  Until: 7:00,                            !- Field 5
  50.0,                                   !- Field 6
  Until: 9:00,                            !- Field 7
  70.0,                                   !- Field 8
  Until: 10:00,                           !- Field 9
  80.0,                                   !- Field 10
  Until: 11:00,                           !- Field 11
  70.0,                                   !- Field 12
  Until: 13:00,                           !- Field 13
  50.0,                                   !- Field 14
  Until: 14:00,                           !- Field 15
  80.0,                                   !- Field 16
  Until: 15:00,                           !- Field 17
  90.0,                                   !- Field 18
  Until: 16:00,                           !- Field 19
  80.0,                                   !- Field 20
  Until: 24:00,                           !- Field 21
  0.0;                                    !- Field 22

OS:ScheduleTypeLimits,
  {f3b1e246-fe40-4535-bcf2-3584b731dc9f}, !- Handle
  {7e118635-6ce5-4124-ada0-cb7335241ee6}; !- Name

OS:ScheduleTypeLimits,
  {cb304b72-9700-41b9-b98e-9699043c73cb}, !- Handle
  On/Off,                                 !- Name
  0,                                      !- Lower Limit Value {BasedOnField A4}
  1,                                      !- Upper Limit Value {BasedOnField A4}
  DISCRETE,                               !- Numeric Type
  Availability;                           !- Unit Type

OS:Meter,
  {c59231a2-718b-4446-9dc2-9ba0bb98259e}, !- Handle
  Humidifier:Electricity,                 !- Name
  hourly,                                 !- Reporting Frequency
  False,                                  !- Meter File Only
  False;                                  !- Cumulative

OS:Construction,
  {c934d1f0-fd41-4fa1-aae6-f6548ca86d82}, !- Handle
  Attic Non-res Floor,                    !- Name
  ,                                       !- Surface Rendering Name
  {c0846578-c685-486a-8f25-81f9958543f4}, !- Layer 1
  {bae95d44-3ccd-4441-8894-9db9141bbbff}, !- Layer 2
  {c0846578-c685-486a-8f25-81f9958543f4}; !- Layer 3

OS:Material,
  {c0846578-c685-486a-8f25-81f9958543f4}, !- Handle
  1/2IN Gypsum,                           !- Name
  Smooth,                                 !- Roughness
  0.0127,                                 !- Thickness {m}
  0.16,                                   !- Conductivity {W/m-K}
  784.9,                                  !- Density {kg/m3}
  830,                                    !- Specific Heat {J/kg-K}
  0.9,                                    !- Thermal Absorptance
  0.92,                                   !- Solar Absorptance
  0.92;                                   !- Visible Absorptance

OS:Material,
  {bae95d44-3ccd-4441-8894-9db9141bbbff}, !- Handle
  AtticFloor NonRes Insulation,           !- Name
  MediumRough,                            !- Roughness
  0.236804989096202,                      !- Thickness {m}
  0.049,                                  !- Conductivity {W/m-K}
  265,                                    !- Density {kg/m3}
  836.8,                                  !- Specific Heat {J/kg-K}
  0.9,                                    !- Thermal Absorptance
  0.7,                                    !- Solar Absorptance
  0.7;                                    !- Visible Absorptance

OS:Schedule:Compact,
  {298ece61-5766-4c1d-9d9f-ebe683725b08}, !- Handle
  Kitchen_Case:1_WALKINFREEZER_CaseDefrost2aDaySched, !- Name
  {cb304b72-9700-41b9-b98e-9699043c73cb}, !- Schedule Type Limits Name
  Through: 12/31,                         !- Field 1
  For:AllDays,                            !- Field 2
  Interpolate:Yes,                        !- Field 3
  Until: 11:00,                           !- Field 4
  0,                                      !- Field 5
  Until: 11:20,                           !- Field 6
  1,                                      !- Field 7
  Until: 23:00,                           !- Field 8
  0,                                      !- Field 9
  Until: 23:20,                           !- Field 10
  1,                                      !- Field 11
  Until: 24:00,                           !- Field 12
  0;                                      !- Field 13

OS:SubSurface,
  {99957484-9063-4deb-80dc-e32bd1e8d982}, !- Handle
  Dining_Wall_South_Window,               !- Name
  FixedWindow,                            !- Sub Surface Type
  {9204832f-a23d-431b-a4b7-0015b456b354}, !- Construction Name
  {435b7adc-a2f9-4fc2-b927-eb3f25fde37f}, !- Surface Name
  ,                                       !- Outside Boundary Condition Object
  ,                                       !- View Factor to Ground
  ,                                       !- Shading Control Name
  ,                                       !- Frame and Divider Name
  1,                                      !- Multiplier
  ,                                       !- Number of Vertices
  0.508, 0, 1.9817,                       !- X,Y,Z Vertex 1 {m}
  0.508, 0, 1.0671,                       !- X,Y,Z Vertex 2 {m}
  14.735, 0, 1.0671,                      !- X,Y,Z Vertex 3 {m}
  14.735, 0, 1.9817;                      !- X,Y,Z Vertex 4 {m}

OS:Construction,
  {9204832f-a23d-431b-a4b7-0015b456b354}, !- Handle
  Window Non-res Fixed,                   !- Name
  ,                                       !- Surface Rendering Name
  {2294de2b-baf9-4c0d-99c7-7c2e00eb340d}; !- Layer 1

OS:WindowMaterial:SimpleGlazingSystem,
  {2294de2b-baf9-4c0d-99c7-7c2e00eb340d}, !- Handle
  NonRes Fixed Assembly Window,           !- Name
  3.23646,                                !- U-Factor {W/m2-K}
  0.39;                                   !- Solar Heat Gain Coefficient

OS:Surface,
  {435b7adc-a2f9-4fc2-b927-eb3f25fde37f}, !- Handle
  Dining_Wall_South,                      !- Name
  Wall,                                   !- Surface Type
  {133b58b4-a538-4498-8243-5de93490c13d}, !- Construction Name
  {586529d2-ed9a-4feb-8d3c-4d41d176bb84}, !- Space Name
  Outdoors,                               !- Outside Boundary Condition
  ,                                       !- Outside Boundary Condition Object
  SunExposed,                             !- Sun Exposure
  WindExposed,                            !- Wind Exposure
  ,                                       !- View Factor to Ground
  ,                                       !- Number of Vertices
  0, 0, 3.0488,                           !- X,Y,Z Vertex 1 {m}
  0, 0, 0,                                !- X,Y,Z Vertex 2 {m}
  15.2428, 0, 0,                          !- X,Y,Z Vertex 3 {m}
  15.2428, 0, 3.0488;                     !- X,Y,Z Vertex 4 {m}

OS:Construction,
  {133b58b4-a538-4498-8243-5de93490c13d}, !- Handle
  Wood Frame Non-res Ext Wall,            !- Name
  ,                                       !- Surface Rendering Name
  {c41f61ea-82fa-4e9e-89b3-8d73d9da0625}, !- Layer 1
  {3083e553-689d-439a-b954-13f19b9937c1}, !- Layer 2
  {c0846578-c685-486a-8f25-81f9958543f4}; !- Layer 3

OS:Material,
  {c41f61ea-82fa-4e9e-89b3-8d73d9da0625}, !- Handle
  Wood Siding,                            !- Name
  MediumSmooth,                           !- Roughness
  0.01,                                   !- Thickness {m}
  0.11,                                   !- Conductivity {W/m-K}
  544.62,                                 !- Density {kg/m3}
  1210,                                   !- Specific Heat {J/kg-K}
  0.9,                                    !- Thermal Absorptance
  0.78,                                   !- Solar Absorptance
  0.78;                                   !- Visible Absorptance

OS:Material,
  {3083e553-689d-439a-b954-13f19b9937c1}, !- Handle
  Wood Frame NonRes Wall Insulation,      !- Name
  MediumRough,                            !- Roughness
  0.0812847864409827,                     !- Thickness {m}
  0.049,                                  !- Conductivity {W/m-K}
  265,                                    !- Density {kg/m3}
  836.8,                                  !- Specific Heat {J/kg-K}
  0.9,                                    !- Thermal Absorptance
  0.7,                                    !- Solar Absorptance
  0.7;                                    !- Visible Absorptance

OS:Space,
  {586529d2-ed9a-4feb-8d3c-4d41d176bb84}, !- Handle
  Dining,                                 !- Name
  {2828fe1b-0ea2-4093-9c60-a1894df73ea4}, !- Space Type Name
  ,                                       !- Default Construction Set Name
  ,                                       !- Default Schedule Set Name
  0,                                      !- Direction of Relative North {deg}
  0,                                      !- X Origin {m}
  0,                                      !- Y Origin {m}
  0,                                      !- Z Origin {m}
  {43c3e9c1-f25f-4c0e-b950-67583b161ac8}, !- Building Story Name
  {57b45998-de33-4202-88ee-04d24de9eacd}, !- Thermal Zone Name
  Yes,                                    !- Part of Total Floor Area
  {5033afd3-966b-4bb2-b26e-770e4bf99fab}; !- Design Specification Outdoor Air Object Name

OS:ThermostatSetpoint:DualSetpoint,
  {c8e9ac66-5ad7-47f1-bd11-3458d0bb9da4}, !- Handle
  {2be8cff5-f03f-445a-aa68-5b0993615356}, !- Name
  {54e64997-da99-4201-8828-9601ceff4c6d}, !- Heating Setpoint Temperature Schedule Name
  {eb54e7c8-27e2-4931-b8d8-45f4bb651b8a}; !- Cooling Setpoint Temperature Schedule Name

OS:Schedule:Compact,
  {54e64997-da99-4201-8828-9601ceff4c6d}, !- Handle
  HTGSETP_SCH,                            !- Name
  {fe5cdf2f-8eed-4073-8220-0fb11085a465}, !- Schedule Type Limits Name
  Through: 12/31,                         !- Field 1
  For: SummerDesignDay,                   !- Field 2
  Until: 24:00,                           !- Field 3
  15.6,                                   !- Field 4
  For: WinterDesignDay,                   !- Field 5
  Until: 24:00,                           !- Field 6
  21,                                     !- Field 7
  For: AllOtherDays,                      !- Field 8
  Until: 01:00,                           !- Field 9
  21,                                     !- Field 10
  Until: 05:00,                           !- Field 11
  15.6,                                   !- Field 12
  Until: 24:00,                           !- Field 13
  21;                                     !- Field 14

OS:Schedule:Compact,
  {eb54e7c8-27e2-4931-b8d8-45f4bb651b8a}, !- Handle
  CLGSETP_SCH,                            !- Name
  {fe5cdf2f-8eed-4073-8220-0fb11085a465}, !- Schedule Type Limits Name
  Through: 12/31,                         !- Field 1
  For: WinterDesignDay,                   !- Field 2
  Until: 24:00,                           !- Field 3
  30,                                     !- Field 4
  For: AllOtherDays,                      !- Field 5
  Until: 01:00,                           !- Field 6
  24,                                     !- Field 7
  Until: 05:00,                           !- Field 8
  30,                                     !- Field 9
  Until: 24:00,                           !- Field 10
  24;                                     !- Field 11

OS:Timestep,
  {a01f9e01-186f-41db-b44e-4dfae6d80cad}, !- Handle
  4;                                      !- Number of Timesteps per Hour

OS:Meter,
  {21ea3cc5-2859-4039-8dc1-e8a35c8930f7}, !- Handle
  Heating:Gas,                            !- Name
  hourly,                                 !- Reporting Frequency
  False,                                  !- Meter File Only
  False;                                  !- Cumulative

OS:SubSurface,
  {a8549c63-73ea-4235-91a6-2d45f9d1158a}, !- Handle
  Dining_Wall_West_Window,                !- Name
  FixedWindow,                            !- Sub Surface Type
  {9204832f-a23d-431b-a4b7-0015b456b354}, !- Construction Name
  {04fd9c1b-3573-43d3-8860-7b13e5119f00}, !- Surface Name
  ,                                       !- Outside Boundary Condition Object
  ,                                       !- View Factor to Ground
  ,                                       !- Shading Control Name
  ,                                       !- Frame and Divider Name
  1,                                      !- Multiplier
  ,                                       !- Number of Vertices
  0, 7.3673, 1.9817,                      !- X,Y,Z Vertex 1 {m}
  0, 7.3673, 1.0671,                      !- X,Y,Z Vertex 2 {m}
  0, 0.254, 1.0671,                       !- X,Y,Z Vertex 3 {m}
  0, 0.254, 1.9817;                       !- X,Y,Z Vertex 4 {m}

OS:Surface,
  {04fd9c1b-3573-43d3-8860-7b13e5119f00}, !- Handle
  Dining_Wall_West,                       !- Name
  Wall,                                   !- Surface Type
  {133b58b4-a538-4498-8243-5de93490c13d}, !- Construction Name
  {586529d2-ed9a-4feb-8d3c-4d41d176bb84}, !- Space Name
  Outdoors,                               !- Outside Boundary Condition
  ,                                       !- Outside Boundary Condition Object
  SunExposed,                             !- Sun Exposure
  WindExposed,                            !- Wind Exposure
  ,                                       !- View Factor to Ground
  ,                                       !- Number of Vertices
  0, 7.6214, 3.0488,                      !- X,Y,Z Vertex 1 {m}
  0, 7.6214, 0,                           !- X,Y,Z Vertex 2 {m}
  0, 0, 0,                                !- X,Y,Z Vertex 3 {m}
  0, 0, 3.0488;                           !- X,Y,Z Vertex 4 {m}

OS:Curve:Quadratic,
  {af02ecf2-3bf0-4cf6-ad82-4e0494ce3654}, !- Handle
  Measured_CoolCStandard10Ton_EIRFFF,     !- Name
  1.192,                                  !- Coefficient1 Constant
  -0.1917,                                !- Coefficient2 x
  0,                                      !- Coefficient3 x**2
  0.776,                                  !- Minimum Value of x {BasedOnField A2}
  1.197;                                  !- Maximum Value of x {BasedOnField A2}

OS:Schedule:Compact,
  {5028affe-d408-4324-998b-17644c7abc16}, !- Handle
  ACTIVITY_SCH,                           !- Name
  {02d3919b-0f52-4e74-bcf2-7e784c53e385}, !- Schedule Type Limits Name
  Through: 12/31,                         !- Field 1
  For: AllDays,                           !- Field 2
  Until: 24:00,                           !- Field 3
  120.;                                   !- Field 4

OS:ScheduleTypeLimits,
  {55828468-8dda-4b96-973b-f2617d7b61d7}, !- Handle
  {4ba6835f-9dfc-453c-9302-f0c4cc2f1848}; !- Name

OS:ConvergenceLimits,
  {61830ffe-bbca-4f16-9752-115a46a1a6f3}, !- Handle
  2,                                      !- Minimum System Timestep {minutes}
  25;                                     !- Maximum HVAC Iterations

OS:Surface,
  {0abd2a23-7fd5-4277-8ba2-dcaea9e6e7ab}, !- Handle
  Dining_Wall_North-PPAutoCreateOther,    !- Name
  Wall,                                   !- Surface Type
  {641f66ce-269a-41bf-a623-001aba47044b}, !- Construction Name
  {510bbd60-6092-4ceb-9225-c4b853f45539}, !- Space Name
  Surface,                                !- Outside Boundary Condition
  {b3ca60d3-2e8e-4d3d-822f-f41ab0eb97b0}, !- Outside Boundary Condition Object
  NoSun,                                  !- Sun Exposure
  NoWind,                                 !- Wind Exposure
  ,                                       !- View Factor to Ground
  ,                                       !- Number of Vertices
  0, 7.6214, 3.0488,                      !- X,Y,Z Vertex 1 {m}
  0, 7.6214, 0,                           !- X,Y,Z Vertex 2 {m}
  15.2428, 7.6214, 0,                     !- X,Y,Z Vertex 3 {m}
  15.2428, 7.6214, 3.0488;                !- X,Y,Z Vertex 4 {m}

OS:Construction,
  {641f66ce-269a-41bf-a623-001aba47044b}, !- Handle
  int-walls,                              !- Name
  ,                                       !- Surface Rendering Name
  {c0846578-c685-486a-8f25-81f9958543f4}, !- Layer 1
  {c0846578-c685-486a-8f25-81f9958543f4}; !- Layer 2

OS:Space,
  {1f41fc04-ba9a-463b-8df6-432e26065b10}, !- Handle
  attic,                                  !- Name
  {c7ef8c28-7bc3-44d0-8e22-64f9c8ab9ced}, !- Space Type Name
  ,                                       !- Default Construction Set Name
  ,                                       !- Default Schedule Set Name
  0,                                      !- Direction of Relative North {deg}
  0,                                      !- X Origin {m}
  0,                                      !- Y Origin {m}
  3.0488,                                 !- Z Origin {m}
  {de2b4283-da76-498f-8818-a34c270be69b}, !- Building Story Name
  ,                                       !- Thermal Zone Name
  No;                                     !- Part of Total Floor Area

OS:Building,
  {e82375b8-c88b-4eb3-9b79-dbe552467d5f}, !- Handle
  QuickServiceRestaurant,                 !- Name
  ,                                       !- Building Sector Type
  0,                                      !- North Axis {deg}
  ,                                       !- Nominal Floor to Floor Height {m}
  ,                                       !- Space Type Name
  ,                                       !- Default Construction Set Name
  ;                                       !- Default Schedule Set Name

OS:Curve:Cubic,
  {90cb1ca3-2b5b-465b-800d-6fece91a92bb}, !- Handle
  ConstantCubic,                          !- Name
  1,                                      !- Coefficient1 Constant
  0,                                      !- Coefficient2 x
  0,                                      !- Coefficient3 x**2
  0,                                      !- Coefficient4 x**3
  -100,                                   !- Minimum Value of x {BasedOnField A2}
  100;                                    !- Maximum Value of x {BasedOnField A2}

OS:Surface,
  {6763e692-296b-4f52-b9a2-dd07f25d0d7d}, !- Handle
  Kitchen_Ceiling,                        !- Name
  RoofCeiling,                            !- Surface Type
  {c934d1f0-fd41-4fa1-aae6-f6548ca86d82}, !- Construction Name
  {510bbd60-6092-4ceb-9225-c4b853f45539}, !- Space Name
  Surface,                                !- Outside Boundary Condition
  {824b5adc-a951-42a4-87f7-4ab73cf1c9c0}, !- Outside Boundary Condition Object
  NoSun,                                  !- Sun Exposure
  NoWind,                                 !- Wind Exposure
  ,                                       !- View Factor to Ground
  ,                                       !- Number of Vertices
  15.2428, 7.6214, 3.0488,                !- X,Y,Z Vertex 1 {m}
  15.2428, 15.2428, 3.0488,               !- X,Y,Z Vertex 2 {m}
  0, 15.2428, 3.0488,                     !- X,Y,Z Vertex 3 {m}
  0, 7.6214, 3.0488;                      !- X,Y,Z Vertex 4 {m}

OS:Meter,
  {0c75c274-3218-43d7-9dad-5cc0f3b20be7}, !- Handle
  InteriorEquipment:Electricity,          !- Name
  hourly,                                 !- Reporting Frequency
  False,                                  !- Meter File Only
  False;                                  !- Cumulative

OS:ScheduleTypeLimits,
  {26839fa0-d2cc-4397-94e1-a92d5e4889b4}, !- Handle
  {142663b1-12e3-4f34-ba92-4da175de9f42}; !- Name

OS:Surface,
  {d2b6329a-99b9-4efc-a6c5-7c7b926d4f52}, !- Handle
  south-roof,                             !- Name
  RoofCeiling,                            !- Surface Type
  {ca96df57-85d1-4dec-b601-40f9005a67dd}, !- Construction Name
  {1f41fc04-ba9a-463b-8df6-432e26065b10}, !- Space Name
  Outdoors,                               !- Outside Boundary Condition
  ,                                       !- Outside Boundary Condition Object
  SunExposed,                             !- Sun Exposure
  WindExposed,                            !- Wind Exposure
  ,                                       !- View Factor to Ground
  ,                                       !- Number of Vertices
  2.5405, 7.6214, 2.5405,                 !- X,Y,Z Vertex 1 {m}
  0, 0, 0,                                !- X,Y,Z Vertex 2 {m}
  15.2428, 0, 0,                          !- X,Y,Z Vertex 3 {m}
  12.7023, 7.6214, 2.5405;                !- X,Y,Z Vertex 4 {m}

OS:Construction,
  {ca96df57-85d1-4dec-b601-40f9005a67dd}, !- Handle
  Attic Non-res Roof,                     !- Name
  ,                                       !- Surface Rendering Name
  {ce957e31-2f56-4904-a94e-a8d5e2d34f14}, !- Layer 1
  {980dbeee-53b5-4fef-a1cb-ad44050047bf}; !- Layer 2

OS:Material,
  {ce957e31-2f56-4904-a94e-a8d5e2d34f14}, !- Handle
  Roof Membrane,                          !- Name
  VeryRough,                              !- Roughness
  0.0095,                                 !- Thickness {m}
  0.16,                                   !- Conductivity {W/m-K}
  1121.29,                                !- Density {kg/m3}
  1460,                                   !- Specific Heat {J/kg-K}
  0.9,                                    !- Thermal Absorptance
  0.7,                                    !- Solar Absorptance
  0.7;                                    !- Visible Absorptance

OS:Material,
  {980dbeee-53b5-4fef-a1cb-ad44050047bf}, !- Handle
  Metal Decking,                          !- Name
  MediumSmooth,                           !- Roughness
  0.0015,                                 !- Thickness {m}
  45.006,                                 !- Conductivity {W/m-K}
  7680,                                   !- Density {kg/m3}
  418.4,                                  !- Specific Heat {J/kg-K}
  0.9,                                    !- Thermal Absorptance
  0.7,                                    !- Solar Absorptance
  0.3;                                    !- Visible Absorptance

OS:Schedule:Compact,
  {9ee624fa-4bf3-4454-a860-bf14054d7094}, !- Handle
  MinOA_Sched,                            !- Name
  {d4298256-e2cd-4d77-930e-bd109fcf29c9}, !- Schedule Type Limits Name
  Through: 12/31,                         !- Field 1
  For: AllDays,                           !- Field 2
  Until: 01:00,                           !- Field 3
  1.0,                                    !- Field 4
  Until: 05:00,                           !- Field 5
  0.0,                                    !- Field 6
  Until: 24:00,                           !- Field 7
  1.0;                                    !- Field 8

OS:ScheduleTypeLimits,
  {d4298256-e2cd-4d77-930e-bd109fcf29c9}, !- Handle
  Fraction,                               !- Name
  0,                                      !- Lower Limit Value {BasedOnField A4}
  1,                                      !- Upper Limit Value {BasedOnField A4}
  CONTINUOUS;                             !- Numeric Type

OS:Meter,
  {14cd4ee5-052a-4372-beba-7494b62f2a23}, !- Handle
  WaterSystems:Gas,                       !- Name
  hourly,                                 !- Reporting Frequency
  False,                                  !- Meter File Only
  False;                                  !- Cumulative

OS:Meter,
  {301bc40a-e919-4b22-98ba-c7599248e308}, !- Handle
  WaterSystems:Electricity,               !- Name
  hourly,                                 !- Reporting Frequency
  False,                                  !- Meter File Only
  False;                                  !- Cumulative

OS:Schedule:Compact,
  {4ae242cd-b0df-4be5-86aa-18fced50d09c}, !- Handle
  Dual Zone Control Type Sched,           !- Name
  {91379869-b550-4a31-a4d9-837d0152aba4}, !- Schedule Type Limits Name
  Through: 12/31,                         !- Field 1
  For: AllDays,                           !- Field 2
  Until: 24:00,                           !- Field 3
  4;                                      !- Field 4

OS:ScheduleTypeLimits,
  {91379869-b550-4a31-a4d9-837d0152aba4}, !- Handle
  Control Type,                           !- Name
  0,                                      !- Lower Limit Value {BasedOnField A4}
  4,                                      !- Upper Limit Value {BasedOnField A4}
  DISCRETE,                               !- Numeric Type
  ControlMode;                            !- Unit Type

OS:Schedule:Compact,
  {2df686ec-50a6-463d-bfb8-224dcb109853}, !- Handle
  Kitchen_Case:1_WALKINFREEZER_CaseCreditReduxSched, !- Name
  {d4298256-e2cd-4d77-930e-bd109fcf29c9}, !- Schedule Type Limits Name
  Through: 12/31,                         !- Field 1
  For:AllDays,                            !- Field 2
  Interpolate:No,                         !- Field 3
  Until: 7:00,                            !- Field 4
  0.2,                                    !- Field 5
  Until: 21:00,                           !- Field 6