
OS:Version,
  {5fbfabd2-f3bf-4235-81da-5fd61e2a464c}, !- Handle
  1.8.0;                                  !- Version Identifier

OS:Site,
  {b577bad3-79da-44b9-8809-51a348150929}, !- Handle
  USA IL-CHICAGO-OHARE,                   !- Name
  41.77,                                  !- Latitude {deg}
  -87.75,                                 !- Longitude {deg}
  -6,                                     !- Time Zone {hr}
  190,                                    !- Elevation {m}
  City;                                   !- Terrain

OS:SimulationControl,
  {42a484e8-ab81-443e-a753-541d0e6cb924}, !- Handle
  Yes,                                    !- Do Zone Sizing Calculation
  Yes,                                    !- Do System Sizing Calculation
  Yes,                                    !- Do Plant Sizing Calculation
  No,                                     !- Run Simulation for Sizing Periods
  Yes,                                    !- Run Simulation for Weather File Run Periods
  0.04,                                   !- Loads Convergence Tolerance Value
  0.2,                                    !- Temperature Convergence Tolerance Value {deltaC}
  FullInteriorAndExterior,                !- Solar Distribution
  25,                                     !- Maximum Number of Warmup Days
  6;                                      !- Minimum Number of Warmup Days

OS:Construction,
  {8f04f473-3d2e-42fc-8672-b3eb0429bf03}, !- Handle
  InteriorFurnishings,                    !- Name
  ,                                       !- Surface Rendering Name
  {d5f296bf-0c83-4831-9e0d-dcafe9a71488}; !- Layer 1

OS:Material,
  {d5f296bf-0c83-4831-9e0d-dcafe9a71488}, !- Handle
  Std Wood 6inch,                         !- Name
  MediumSmooth,                           !- Roughness
  0.15,                                   !- Thickness {m}
  0.12,                                   !- Conductivity {W/m-K}
  540,                                    !- Density {kg/m3}
  1210,                                   !- Specific Heat {J/kg-K}
  0.9,                                    !- Thermal Absorptance
  0.7,                                    !- Solar Absorptance
  0.7;                                    !- Visible Absorptance

OS:Surface,
  {1cfb5e17-bb4d-4be3-a80a-48a2fc044fc5}, !- Handle
  Core_ZN_ceiling,                        !- Name
  RoofCeiling,                            !- Surface Type
  {88d9813d-3c17-429d-8a07-e6e9ae5c31b2}, !- Construction Name
  {591524b3-6e88-40f3-bf5e-4b846a80d9e3}, !- Space Name
  Surface,                                !- Outside Boundary Condition
  {658d7947-c58d-4170-8830-dd40de10379e}, !- Outside Boundary Condition Object
  NoSun,                                  !- Sun Exposure
  NoWind,                                 !- Wind Exposure
  ,                                       !- View Factor to Ground
  ,                                       !- Number of Vertices
  22.69, 5, 3.05,                         !- X,Y,Z Vertex 1 {m}
  22.69, 13.46, 3.05,                     !- X,Y,Z Vertex 2 {m}
  5, 13.46, 3.05,                         !- X,Y,Z Vertex 3 {m}
  5, 5, 3.05;                             !- X,Y,Z Vertex 4 {m}

OS:Construction,
  {88d9813d-3c17-429d-8a07-e6e9ae5c31b2}, !- Handle
  Attic Non-res Floor,                    !- Name
  ,                                       !- Surface Rendering Name
  {7b8d2809-9149-4029-b4fb-343f9e22b9ee}, !- Layer 1
  {62324c70-f0c1-4382-badf-5e549c1e48f8}, !- Layer 2
  {7b8d2809-9149-4029-b4fb-343f9e22b9ee}; !- Layer 3

OS:Material,
  {7b8d2809-9149-4029-b4fb-343f9e22b9ee}, !- Handle
  1/2IN Gypsum,                           !- Name
  Smooth,                                 !- Roughness
  0.0127,                                 !- Thickness {m}
  0.16,                                   !- Conductivity {W/m-K}
  784.9,                                  !- Density {kg/m3}
  830,                                    !- Specific Heat {J/kg-K}
  0.9,                                    !- Thermal Absorptance
  0.92,                                   !- Solar Absorptance
  0.92;                                   !- Visible Absorptance

OS:Material,
  {62324c70-f0c1-4382-badf-5e549c1e48f8}, !- Handle
  AtticFloor NonRes Insulation,           !- Name
  MediumRough,                            !- Roughness
  0.236804989096202,                      !- Thickness {m}
  0.049,                                  !- Conductivity {W/m-K}
  265,                                    !- Density {kg/m3}
  836.8,                                  !- Specific Heat {J/kg-K}
  0.9,                                    !- Thermal Absorptance
  0.7,                                    !- Solar Absorptance
  0.7;                                    !- Visible Absorptance

OS:Space,
  {591524b3-6e88-40f3-bf5e-4b846a80d9e3}, !- Handle
  Core_ZN,                                !- Name
  {db9852b7-f6bd-4b04-ac4b-96b6887e0ecc}, !- Space Type Name
  ,                                       !- Default Construction Set Name
  ,                                       !- Default Schedule Set Name
  0,                                      !- Direction of Relative North {deg}
  0,                                      !- X Origin {m}
  0,                                      !- Y Origin {m}
  0,                                      !- Z Origin {m}
  {9e6652e7-3848-4dc9-a52a-8120035a8c4a}, !- Building Story Name
  {b3805fc2-8ad9-4f00-a92a-32d6b0044336}, !- Thermal Zone Name
  Yes,                                    !- Part of Total Floor Area
  {3b2085c5-8757-4dc9-85fc-3415cc50afe8}; !- Design Specification Outdoor Air Object Name

OS:ThermostatSetpoint:DualSetpoint,
  {f9fe790f-3750-4e53-bd78-662098e38870}, !- Handle
  {54cd49a5-64f7-4b0f-8925-550f21b3c04a}, !- Name
  {feca7c88-a5c5-462a-b675-ba2f881d9116}, !- Heating Setpoint Temperature Schedule Name
  {9b843219-a172-4f2f-bf9e-9f7a0e2f6e6e}; !- Cooling Setpoint Temperature Schedule Name

OS:Schedule:Compact,
  {feca7c88-a5c5-462a-b675-ba2f881d9116}, !- Handle
  HTGSETP_SCH,                            !- Name
  {03ca8271-c04e-4bc4-aa06-242723b34617}, !- Schedule Type Limits Name
  Through: 12/31,                         !- Field 1
  For: Weekdays,                          !- Field 2
  Until: 06:00,                           !- Field 3
  15.6,                                   !- Field 4
  Until: 22:00,                           !- Field 5
  21.0,                                   !- Field 6
  Until: 24:00,                           !- Field 7
  15.6,                                   !- Field 8
  For: Saturday,                          !- Field 9
  Until: 06:00,                           !- Field 10
  15.6,                                   !- Field 11
  Until: 18:00,                           !- Field 12
  21.0,                                   !- Field 13
  Until: 24:00,                           !- Field 14
  15.6,                                   !- Field 15
  For: WinterDesignDay,                   !- Field 16
  Until: 24:00,                           !- Field 17
  21.0,                                   !- Field 18
  For: AllOtherDays,                      !- Field 19
  Until: 24:00,                           !- Field 20
  15.6;                                   !- Field 21

OS:ScheduleTypeLimits,
  {03ca8271-c04e-4bc4-aa06-242723b34617}, !- Handle
  Temperature,                            !- Name
  -60,                                    !- Lower Limit Value {BasedOnField A4}
  200,                                    !- Upper Limit Value {BasedOnField A4}
  CONTINUOUS,                             !- Numeric Type
  Temperature;                            !- Unit Type

OS:Schedule:Compact,
  {9b843219-a172-4f2f-bf9e-9f7a0e2f6e6e}, !- Handle
  CLGSETP_SCH,                            !- Name
  {03ca8271-c04e-4bc4-aa06-242723b34617}, !- Schedule Type Limits Name
  Through: 12/31,                         !- Field 1
  For: Weekdays SummerDesignDay,          !- Field 2
  Until: 06:00,                           !- Field 3
  26.7,                                   !- Field 4
  Until: 22:00,                           !- Field 5
  24.0,                                   !- Field 6
  Until: 24:00,                           !- Field 7
  26.7,                                   !- Field 8
  For: Saturday,                          !- Field 9
  Until: 06:00,                           !- Field 10
  26.7,                                   !- Field 11
  Until: 18:00,                           !- Field 12
  24.0,                                   !- Field 13
  Until: 24:00,                           !- Field 14
  26.7,                                   !- Field 15
  For: AllOtherDays,                      !- Field 16
  Until: 24:00,                           !- Field 17
  26.7;                                   !- Field 18

OS:SubSurface,
  {11cf5cb7-c42f-4546-a261-a702e3d7cc3f}, !- Handle
  Perimeter_ZN_3_wall_north_Window_2,     !- Name
  FixedWindow,                            !- Sub Surface Type
  {87c52371-dedd-4cff-9573-a1e3035aa633}, !- Construction Name
  {305cfb62-d9f8-4a7e-95bf-c72b79a06a23}, !- Surface Name
  ,                                       !- Outside Boundary Condition Object
  ,                                       !- View Factor to Ground
  ,                                       !- Shading Control Name
  ,                                       !- Frame and Divider Name
  1,                                      !- Multiplier
  ,                                       !- Number of Vertices
  21.68, 18.46, 2.424,                    !- X,Y,Z Vertex 1 {m}
  21.68, 18.46, 0.9,                      !- X,Y,Z Vertex 2 {m}
  19.85, 18.46, 0.9,                      !- X,Y,Z Vertex 3 {m}
  19.85, 18.46, 2.424;                    !- X,Y,Z Vertex 4 {m}

OS:Construction,
  {87c52371-dedd-4cff-9573-a1e3035aa633}, !- Handle
  Window Non-res Fixed,                   !- Name
  ,                                       !- Surface Rendering Name
  {525a9be3-f36f-41e3-a5dc-747f1e7479cd}; !- Layer 1

OS:WindowMaterial:SimpleGlazingSystem,
  {525a9be3-f36f-41e3-a5dc-747f1e7479cd}, !- Handle
  NonRes Fixed Assembly Window,           !- Name
  3.23646,                                !- U-Factor {W/m2-K}
  0.39;                                   !- Solar Heat Gain Coefficient

OS:Surface,
  {305cfb62-d9f8-4a7e-95bf-c72b79a06a23}, !- Handle
  Perimeter_ZN_3_wall_north,              !- Name
  Wall,                                   !- Surface Type
  {66299de7-9cfb-401b-ac72-b75564cf5592}, !- Construction Name
  {fa5b0e33-c3d0-4cc8-8d11-b8c1a7407a1f}, !- Space Name
  Outdoors,                               !- Outside Boundary Condition
  ,                                       !- Outside Boundary Condition Object
  SunExposed,                             !- Sun Exposure
  WindExposed,                            !- Wind Exposure
  ,                                       !- View Factor to Ground
  ,                                       !- Number of Vertices
  27.69, 18.46, 3.05,                     !- X,Y,Z Vertex 1 {m}
  27.69, 18.46, 0,                        !- X,Y,Z Vertex 2 {m}
  0, 18.46, 0,                            !- X,Y,Z Vertex 3 {m}
  0, 18.46, 3.05;                         !- X,Y,Z Vertex 4 {m}

OS:Construction,
  {66299de7-9cfb-401b-ac72-b75564cf5592}, !- Handle
  Mass Non-res Ext Wall,                  !- Name
  ,                                       !- Surface Rendering Name
  {e7edcf1c-eef4-4a70-976e-395c95e36ca6}, !- Layer 1
  {fe622404-0805-4d06-bfe3-a45e7d35c7f9}, !- Layer 2
  {a9f9bd77-11c6-4c63-838f-14863e703937}, !- Layer 3
  {7b8d2809-9149-4029-b4fb-343f9e22b9ee}; !- Layer 4

OS:Material,
  {e7edcf1c-eef4-4a70-976e-395c95e36ca6}, !- Handle
  1IN Stucco,                             !- Name
  Smooth,                                 !- Roughness
  0.0253,                                 !- Thickness {m}
  0.6918,                                 !- Conductivity {W/m-K}
  1858,                                   !- Density {kg/m3}
  837,                                    !- Specific Heat {J/kg-K}
  0.9,                                    !- Thermal Absorptance
  0.92,                                   !- Solar Absorptance
  0.92;                                   !- Visible Absorptance

OS:Material,
  {fe622404-0805-4d06-bfe3-a45e7d35c7f9}, !- Handle
  8IN CONCRETE HW,                        !- Name
  Rough,                                  !- Roughness
  0.2032,                                 !- Thickness {m}
  1.311,                                  !- Conductivity {W/m-K}
  2240,                                   !- Density {kg/m3}
  836.8,                                  !- Specific Heat {J/kg-K}
  0.9,                                    !- Thermal Absorptance
  0.7,                                    !- Solar Absorptance
  0.7;                                    !- Visible Absorptance

OS:Material,
  {a9f9bd77-11c6-4c63-838f-14863e703937}, !- Handle
  Mass NonRes Wall Insulation,            !- Name
  MediumRough,                            !- Roughness
  0.0495494599433393,                     !- Thickness {m}
  0.049,                                  !- Conductivity {W/m-K}
  265,                                    !- Density {kg/m3}
  836.8,                                  !- Specific Heat {J/kg-K}
  0.9,                                    !- Thermal Absorptance
  0.7,                                    !- Solar Absorptance
  0.7;                                    !- Visible Absorptance

OS:Space,
  {fa5b0e33-c3d0-4cc8-8d11-b8c1a7407a1f}, !- Handle
  Perimeter_ZN_3,                         !- Name
  {db9852b7-f6bd-4b04-ac4b-96b6887e0ecc}, !- Space Type Name
  ,                                       !- Default Construction Set Name
  ,                                       !- Default Schedule Set Name
  0,                                      !- Direction of Relative North {deg}
  0,                                      !- X Origin {m}
  0,                                      !- Y Origin {m}
  0,                                      !- Z Origin {m}
  {9e6652e7-3848-4dc9-a52a-8120035a8c4a}, !- Building Story Name
  {0eea08c6-acdd-4b04-b1a1-f8b13f93eeff}, !- Thermal Zone Name
  Yes,                                    !- Part of Total Floor Area
  {d2d76fff-6737-47d7-90e1-4c8332784bcf}; !- Design Specification Outdoor Air Object Name

OS:ThermostatSetpoint:DualSetpoint,
  {00cc7024-8f5e-431a-bbcb-0caafa0cc727}, !- Handle
  {c208f1f2-631d-4155-9c95-5e5855e61c6e}, !- Name
  {feca7c88-a5c5-462a-b675-ba2f881d9116}, !- Heating Setpoint Temperature Schedule Name
  {9b843219-a172-4f2f-bf9e-9f7a0e2f6e6e}; !- Cooling Setpoint Temperature Schedule Name

OS:Surface,
  {15c717a0-8c64-41f9-9471-d45f0d4bb59b}, !- Handle
  Perimeter_ZN_2_wall_east,               !- Name
  Wall,                                   !- Surface Type
  {66299de7-9cfb-401b-ac72-b75564cf5592}, !- Construction Name
  {ce9dcd0e-3e94-4e98-9fbe-1c726ea66d3b}, !- Space Name
  Outdoors,                               !- Outside Boundary Condition
  ,                                       !- Outside Boundary Condition Object
  SunExposed,                             !- Sun Exposure
  WindExposed,                            !- Wind Exposure
  ,                                       !- View Factor to Ground
  ,                                       !- Number of Vertices
  27.69, 0, 3.05,                         !- X,Y,Z Vertex 1 {m}
  27.69, 0, 0,                            !- X,Y,Z Vertex 2 {m}
  27.69, 18.46, 0,                        !- X,Y,Z Vertex 3 {m}
  27.69, 18.46, 3.05;                     !- X,Y,Z Vertex 4 {m}

OS:Space,
  {ce9dcd0e-3e94-4e98-9fbe-1c726ea66d3b}, !- Handle
  Perimeter_ZN_2,                         !- Name
  {db9852b7-f6bd-4b04-ac4b-96b6887e0ecc}, !- Space Type Name
  ,                                       !- Default Construction Set Name
  ,                                       !- Default Schedule Set Name
  0,                                      !- Direction of Relative North {deg}
  0,                                      !- X Origin {m}
  0,                                      !- Y Origin {m}
  0,                                      !- Z Origin {m}
  {9e6652e7-3848-4dc9-a52a-8120035a8c4a}, !- Building Story Name
  {9bd34cc7-b32c-4e40-8dbe-55f1b33bd4ff}, !- Thermal Zone Name
  Yes,                                    !- Part of Total Floor Area
  {f7a18107-6cdc-4896-8243-bf17bf57851d}; !- Design Specification Outdoor Air Object Name

OS:ThermostatSetpoint:DualSetpoint,
  {2b9a3632-93f5-4e70-b84c-f2f91ddad10a}, !- Handle
  {11eb49d4-9aad-4306-9a30-f0a7199ef2f9}, !- Name
  {feca7c88-a5c5-462a-b675-ba2f881d9116}, !- Heating Setpoint Temperature Schedule Name
  {9b843219-a172-4f2f-bf9e-9f7a0e2f6e6e}; !- Cooling Setpoint Temperature Schedule Name

OS:SubSurface,
  {d42ac52f-14bc-44e1-9540-cc30bbaf427c}, !- Handle
  Perimeter_ZN_1_wall_south_Window_6,     !- Name
  FixedWindow,                            !- Sub Surface Type
  {87c52371-dedd-4cff-9573-a1e3035aa633}, !- Construction Name
  {5ef078eb-822a-40a5-b36c-f69b32f9f5d4}, !- Surface Name
  ,                                       !- Outside Boundary Condition Object
  ,                                       !- View Factor to Ground
  ,                                       !- Shading Control Name
  ,                                       !- Frame and Divider Name
  1,                                      !- Multiplier
  ,                                       !- Number of Vertices
  24.47, 0, 2.424,                        !- X,Y,Z Vertex 1 {m}
  24.47, 0, 0.9,                          !- X,Y,Z Vertex 2 {m}
  26.3, 0, 0.9,                           !- X,Y,Z Vertex 3 {m}
  26.3, 0, 2.424;                         !- X,Y,Z Vertex 4 {m}

OS:Surface,
  {5ef078eb-822a-40a5-b36c-f69b32f9f5d4}, !- Handle
  Perimeter_ZN_1_wall_south,              !- Name
  Wall,                                   !- Surface Type
  {66299de7-9cfb-401b-ac72-b75564cf5592}, !- Construction Name
  {fc664ec5-c6e7-40fd-89e1-8811b79ce869}, !- Space Name
  Outdoors,                               !- Outside Boundary Condition
  ,                                       !- Outside Boundary Condition Object
  SunExposed,                             !- Sun Exposure
  WindExposed,                            !- Wind Exposure
  ,                                       !- View Factor to Ground
  ,                                       !- Number of Vertices
  0, 0, 3.05,                             !- X,Y,Z Vertex 1 {m}
  0, 0, 0,                                !- X,Y,Z Vertex 2 {m}
  27.69, 0, 0,                            !- X,Y,Z Vertex 3 {m}
  27.69, 0, 3.05;                         !- X,Y,Z Vertex 4 {m}

OS:Space,
  {fc664ec5-c6e7-40fd-89e1-8811b79ce869}, !- Handle
  Perimeter_ZN_1,                         !- Name
  {db9852b7-f6bd-4b04-ac4b-96b6887e0ecc}, !- Space Type Name
  ,                                       !- Default Construction Set Name
  ,                                       !- Default Schedule Set Name
  0,                                      !- Direction of Relative North {deg}
  0,                                      !- X Origin {m}
  0,                                      !- Y Origin {m}
  0,                                      !- Z Origin {m}
  {9e6652e7-3848-4dc9-a52a-8120035a8c4a}, !- Building Story Name
  {d57d1159-0df9-430b-b2be-a38c096afdb2}, !- Thermal Zone Name
  Yes,                                    !- Part of Total Floor Area
  {18b269da-d4cb-4a1f-8209-f1175bc55688}; !- Design Specification Outdoor Air Object Name

OS:ThermostatSetpoint:DualSetpoint,
  {7d1ca3eb-45de-45b8-9a72-72e1fa9a54ba}, !- Handle
  {622e9ba6-3b90-43a9-adf0-cab124faf6cc}, !- Name
  {feca7c88-a5c5-462a-b675-ba2f881d9116}, !- Heating Setpoint Temperature Schedule Name
  {9b843219-a172-4f2f-bf9e-9f7a0e2f6e6e}; !- Cooling Setpoint Temperature Schedule Name

OS:Schedule:Compact,
  {31a8a1b3-e0a8-4456-bed7-8a148d348d1f}, !- Handle
  SWHSys1-Loop-Temp-Schedule,             !- Name
  {03ca8271-c04e-4bc4-aa06-242723b34617}, !- Schedule Type Limits Name
  Through: 12/31,                         !- Field 1
  For: AllDays,                           !- Field 2
  Until: 24:00,                           !- Field 3
  60.0;                                   !- Field 4

OS:Surface,
  {42502e2b-9003-449e-86cf-fcb83157fd92}, !- Handle
  Perimeter_ZN_2_wall_south,              !- Name
  Wall,                                   !- Surface Type
  {9136a9cf-28b0-4c04-940e-f09eb5d5044e}, !- Construction Name
  {ce9dcd0e-3e94-4e98-9fbe-1c726ea66d3b}, !- Space Name
  Surface,                                !- Outside Boundary Condition
  {1e27ac65-69a7-4df7-bf80-e2426843e458}, !- Outside Boundary Condition Object
  NoSun,                                  !- Sun Exposure
  NoWind,                                 !- Wind Exposure
  ,                                       !- View Factor to Ground
  ,                                       !- Number of Vertices
  22.69, 5, 3.05,                         !- X,Y,Z Vertex 1 {m}
  22.69, 5, 0,                            !- X,Y,Z Vertex 2 {m}
  27.69, 0, 0,                            !- X,Y,Z Vertex 3 {m}
  27.69, 0, 3.05;                         !- X,Y,Z Vertex 4 {m}

OS:Construction,
  {9136a9cf-28b0-4c04-940e-f09eb5d5044e}, !- Handle
  int-walls,                              !- Name
  ,                                       !- Surface Rendering Name
  {7b8d2809-9149-4029-b4fb-343f9e22b9ee}, !- Layer 1
  {7b8d2809-9149-4029-b4fb-343f9e22b9ee}; !- Layer 2

OS:Curve:Cubic,
  {d9a37642-3bb1-44c8-9478-36454cc175bc}, !- Handle
  ConstantCubic,                          !- Name
  1,                                      !- Coefficient1 Constant
  0,                                      !- Coefficient2 x
  0,                                      !- Coefficient3 x**2
  0,                                      !- Coefficient4 x**3
  -100,                                   !- Minimum Value of x {BasedOnField A2}
  100;                                    !- Maximum Value of x {BasedOnField A2}

OS:Surface,
  {5836fd3c-9bb4-4a51-ae92-6211ed838b64}, !- Handle
  Perimeter_ZN_4_ceiling,                 !- Name
  RoofCeiling,                            !- Surface Type
  {88d9813d-3c17-429d-8a07-e6e9ae5c31b2}, !- Construction Name
  {6d2587db-f425-4a1a-9cf5-e2f4e24d5918}, !- Space Name
  Surface,                                !- Outside Boundary Condition
  {12956b3b-cd79-4be4-bf71-f4c1c42ced96}, !- Outside Boundary Condition Object
  NoSun,                                  !- Sun Exposure
  NoWind,                                 !- Wind Exposure
  ,                                       !- View Factor to Ground
  ,                                       !- Number of Vertices
  0, 0, 3.05,                             !- X,Y,Z Vertex 1 {m}
  5, 5, 3.05,                             !- X,Y,Z Vertex 2 {m}
  5, 13.46, 3.05,                         !- X,Y,Z Vertex 3 {m}
  0, 18.46, 3.05;                         !- X,Y,Z Vertex 4 {m}

OS:Space,
  {6d2587db-f425-4a1a-9cf5-e2f4e24d5918}, !- Handle
  Perimeter_ZN_4,                         !- Name
  {db9852b7-f6bd-4b04-ac4b-96b6887e0ecc}, !- Space Type Name
  ,                                       !- Default Construction Set Name
  ,                                       !- Default Schedule Set Name
  0,                                      !- Direction of Relative North {deg}
  0,                                      !- X Origin {m}
  0,                                      !- Y Origin {m}
  0,                                      !- Z Origin {m}
  {9e6652e7-3848-4dc9-a52a-8120035a8c4a}, !- Building Story Name
  {a05b5b88-de02-43f8-85d2-4ce84ca60d8a}, !- Thermal Zone Name
  Yes,                                    !- Part of Total Floor Area
  {79d08564-584d-453f-b1f2-1cc9e5f684a3}; !- Design Specification Outdoor Air Object Name

OS:ThermostatSetpoint:DualSetpoint,
  {9af5a743-421b-45a5-9464-cf344358fe14}, !- Handle
  {8e742685-97b5-474f-91f1-b24225317004}, !- Name
  {feca7c88-a5c5-462a-b675-ba2f881d9116}, !- Heating Setpoint Temperature Schedule Name
  {9b843219-a172-4f2f-bf9e-9f7a0e2f6e6e}; !- Cooling Setpoint Temperature Schedule Name

OS:SubSurface,
  {de554a8d-1588-4c9e-9405-432c2b418042}, !- Handle
  Perimeter_ZN_1_wall_south_Window_4,     !- Name
  FixedWindow,                            !- Sub Surface Type
  {87c52371-dedd-4cff-9573-a1e3035aa633}, !- Construction Name
  {5ef078eb-822a-40a5-b36c-f69b32f9f5d4}, !- Surface Name
  ,                                       !- Outside Boundary Condition Object
  ,                                       !- View Factor to Ground
  ,                                       !- Shading Control Name
  ,                                       !- Frame and Divider Name
  1,                                      !- Multiplier
  ,                                       !- Number of Vertices
  15.24, 0, 2.424,                        !- X,Y,Z Vertex 1 {m}
  15.24, 0, 0.9,                          !- X,Y,Z Vertex 2 {m}
  17.07, 0, 0.9,                          !- X,Y,Z Vertex 3 {m}
  17.07, 0, 2.424;                        !- X,Y,Z Vertex 4 {m}

OS:Meter,
  {1e2866b0-6c42-42b5-adcb-a53f5889f190}, !- Handle
  ExteriorLights:Electricity,             !- Name
  hourly,                                 !- Reporting Frequency
  False,                                  !- Meter File Only
  False;                                  !- Cumulative

OS:Surface,
  {8decadf8-8dcc-4aff-b97d-8162dbaadd12}, !- Handle
  Perimeter_ZN_1_wall_north,              !- Name
  Wall,                                   !- Surface Type
  {9136a9cf-28b0-4c04-940e-f09eb5d5044e}, !- Construction Name
  {fc664ec5-c6e7-40fd-89e1-8811b79ce869}, !- Space Name
  Surface,                                !- Outside Boundary Condition
  {f98f2c94-200b-41b9-b2f3-dba4671ea03b}, !- Outside Boundary Condition Object
  NoSun,                                  !- Sun Exposure
  NoWind,                                 !- Wind Exposure
  ,                                       !- View Factor to Ground
  ,                                       !- Number of Vertices
  22.69, 5, 3.05,                         !- X,Y,Z Vertex 1 {m}
  22.69, 5, 0,                            !- X,Y,Z Vertex 2 {m}
  5, 5, 0,                                !- X,Y,Z Vertex 3 {m}
  5, 5, 3.05;                             !- X,Y,Z Vertex 4 {m}

OS:Curve:Biquadratic,
  {335ca880-8b27-4fb6-982f-5444bbd66c29}, !- Handle
  Cool-EIR-fT,                            !- Name
  0.28687133,                             !- Coefficient1 Constant
  0.023902164,                            !- Coefficient2 x
  -0.000810648,                           !- Coefficient3 x**2
  0.013458546,                            !- Coefficient4 y
  0.0003389364,                           !- Coefficient5 y**2
  -0.0004870044,                          !- Coefficient6 x*y
  -100,                                   !- Minimum Value of x {BasedOnField A2}
  100,                                    !- Maximum Value of x {BasedOnField A2}
  -100,                                   !- Minimum Value of y {BasedOnField A3}
  100;                                    !- Maximum Value of y {BasedOnField A3}

OS:Schedule:Compact,
  {fb95a53e-b720-41b5-b04b-e99df3be7f48}, !- Handle
  ACTIVITY_SCH,                           !- Name
  {662715b5-4b64-40a4-841d-e1300a5be7de}, !- Schedule Type Limits Name
  Through: 12/31,                         !- Field 1
  For: AllDays,                           !- Field 2
  Until: 24:00,                           !- Field 3
  120;                                    !- Field 4

OS:ScheduleTypeLimits,
  {e2d2e27b-e2b3-4412-ab8f-85febe9c46ff}, !- Handle
  {05cabe92-f9be-4762-9371-9ff3685bd9f8}; !- Name

OS:Material,
  {0a740590-0f56-4133-a00d-756bbf3c3983}, !- Handle
  Roof Membrane,                          !- Name
  VeryRough,                              !- Roughness
  0.0095,                                 !- Thickness {m}
  0.16,                                   !- Conductivity {W/m-K}
  1121.29,                                !- Density {kg/m3}
  1460,                                   !- Specific Heat {J/kg-K}
  0.9,                                    !- Thermal Absorptance
  0.7,                                    !- Solar Absorptance
  0.7;                                    !- Visible Absorptance

OS:Schedule:Compact,
  {3fc60019-9aa3-4191-859d-258c1daf65cf}, !- Handle
  Dual Zone Control Type Sched,           !- Name
  {2d1baf41-8262-4509-a6fc-58cc85a8a94c}, !- Schedule Type Limits Name
  Through: 12/31,                         !- Field 1
  For: AllDays,                           !- Field 2
  Until: 24:00,                           !- Field 3
  4;                                      !- Field 4

OS:ScheduleTypeLimits,
  {2d1baf41-8262-4509-a6fc-58cc85a8a94c}, !- Handle
  Control Type,                           !- Name
  0,                                      !- Lower Limit Value {BasedOnField A4}
  4,                                      !- Upper Limit Value {BasedOnField A4}
  DISCRETE,                               !- Numeric Type
  ControlMode;                            !- Unit Type

OS:Surface,
  {88647b95-d0b8-4a33-9407-f4f2bca13927}, !- Handle
  Perimeter_ZN_3_ceiling,                 !- Name
  RoofCeiling,                            !- Surface Type
  {88d9813d-3c17-429d-8a07-e6e9ae5c31b2}, !- Construction Name
  {fa5b0e33-c3d0-4cc8-8d11-b8c1a7407a1f}, !- Space Name
  Surface,                                !- Outside Boundary Condition
  {9deabb10-874d-42e7-8932-e10e9064b98d}, !- Outside Boundary Condition Object
  NoSun,                                  !- Sun Exposure
  NoWind,                                 !- Wind Exposure
  ,                                       !- View Factor to Ground
  ,                                       !- Number of Vertices
  22.69, 13.46, 3.05,                     !- X,Y,Z Vertex 1 {m}
  27.69, 18.46, 3.05,                     !- X,Y,Z Vertex 2 {m}