
OS:Version,
  {42a41edc-e947-4c0e-9ef9-6c8e51a648c1}, !- Handle
  1.8.5;                                  !- Version Identifier

OS:Site,
  {ac03568a-27c7-4709-9324-ac1366200c24}, !- Handle
  USA IL-CHICAGO-OHARE,                   !- Name
  41.77,                                  !- Latitude {deg}
  -87.75,                                 !- Longitude {deg}
  -6,                                     !- Time Zone {hr}
  190,                                    !- Elevation {m}
  City;                                   !- Terrain

OS:SimulationControl,
  {dd7eeaf1-afde-4de6-992a-2962faf9fa05}, !- Handle
  Yes,                                    !- Do Zone Sizing Calculation
  Yes,                                    !- Do System Sizing Calculation
  Yes,                                    !- Do Plant Sizing Calculation
  No,                                     !- Run Simulation for Sizing Periods
  Yes,                                    !- Run Simulation for Weather File Run Periods
  0.04,                                   !- Loads Convergence Tolerance Value
  0.2,                                    !- Temperature Convergence Tolerance Value {deltaC}
  FullInteriorAndExterior,                !- Solar Distribution
  25,                                     !- Maximum Number of Warmup Days
  6;                                      !- Minimum Number of Warmup Days

OS:Schedule:Compact,
  {e1f0d1c4-66fd-440d-b045-461d9dffaa06}, !- Handle
  CLOTHING_SCH,                           !- Name
  ,                                       !- Schedule Type Limits Name
  Through: 04/30,                         !- Field 1
  For: AllDays,                           !- Field 2
  Until: 24:00,                           !- Field 3
  1.0,                                    !- Field 4
  Through: 09/30,                         !- Field 5
  For: AllDays,                           !- Field 6
  Until: 24:00,                           !- Field 7
  0.5,                                    !- Field 8
  Through: 12/31,                         !- Field 9
  For: AllDays,                           !- Field 10
  Until: 24:00,                           !- Field 11
  1.0;                                    !- Field 12

OS:ScheduleTypeLimits,
  {ba0c53c4-f18d-48d6-a55b-af1bda261a32}, !- Handle
  {7ab68ca9-c470-4bcd-bb13-94cca83eff9d}; !- Name

OS:Lights:Definition,
  {76835077-1c5e-4ff3-b889-357feb0c1601}, !- Handle
  Perimeter_ZN_1_Lights Definition,       !- Name
  Watts/Area,                             !- Design Level Calculation Method
  ,                                       !- Lighting Level {W}
  10.76,                                  !- Watts per Space Floor Area {W/m2}
  ,                                       !- Watts per Person {W/person}
  0.7,                                    !- Fraction Radiant
  0.2,                                    !- Fraction Visible
  0,                                      !- Return Air Fraction
  No;                                     !- Return Air Fraction Calculated from Plenum Temperature

OS:Lights,
  {20c33e16-e218-4942-b950-883a9b5e97b1}, !- Handle
  Perimeter_ZN_1_Lights,                  !- Name
  {76835077-1c5e-4ff3-b889-357feb0c1601}, !- Lights Definition Name
  {629e23a4-074d-4042-81e3-87c5a1fcf349}, !- Space or SpaceType Name
  {50fa8a0e-205e-4fc3-9f9f-8dd1ecdcf2fa}, !- Schedule Name
  1,                                      !- Fraction Replaceable
  ,                                       !- Multiplier
  General;                                !- End-Use Subcategory

OS:Space,
  {629e23a4-074d-4042-81e3-87c5a1fcf349}, !- Handle
  Perimeter_ZN_1,                         !- Name
  {ef5cd496-87a0-49f4-bb46-baf1cecaf537}, !- Space Type Name
  ,                                       !- Default Construction Set Name
  ,                                       !- Default Schedule Set Name
  0,                                      !- Direction of Relative North {deg}
  0,                                      !- X Origin {m}
  0,                                      !- Y Origin {m}
  0,                                      !- Z Origin {m}
  {3977d4ed-dd8a-4ec6-b317-9c3b090221a2}, !- Building Story Name
  {6340a5e4-fd95-411e-a7f8-26f04745ee13}, !- Thermal Zone Name
  Yes,                                    !- Part of Total Floor Area
  {76acf3be-2890-43d7-b41b-0f9d85e74a8f}; !- Design Specification Outdoor Air Object Name

OS:ThermostatSetpoint:DualSetpoint,
  {769cf451-05ca-45f3-8cc9-7154a9fa2292}, !- Handle
  {80306692-680b-42ad-8ee6-d125e557345b}, !- Name
  {f941bdd6-b7df-401b-a3f6-2ee6d0502d62}, !- Heating Setpoint Temperature Schedule Name
  {fa33d2e6-ab39-4efe-a20e-9de37504a9af}; !- Cooling Setpoint Temperature Schedule Name

OS:Schedule:Compact,
  {f941bdd6-b7df-401b-a3f6-2ee6d0502d62}, !- Handle
  HTGSETP_SCH,                            !- Name
  {df1757e3-e4c1-4898-81ee-506d76c309d4}, !- Schedule Type Limits Name
  Through: 12/31,                         !- Field 1
  For: Weekdays,                          !- Field 2
  Until: 06:00,                           !- Field 3
  15.6,                                   !- Field 4
  Until: 22:00,                           !- Field 5
  21.0,                                   !- Field 6
  Until: 24:00,                           !- Field 7
  15.6,                                   !- Field 8
  For: Saturday,                          !- Field 9
  Until: 06:00,                           !- Field 10
  15.6,                                   !- Field 11
  Until: 18:00,                           !- Field 12
  21.0,                                   !- Field 13
  Until: 24:00,                           !- Field 14
  15.6,                                   !- Field 15
  For: WinterDesignDay,                   !- Field 16
  Until: 24:00,                           !- Field 17
  21.0,                                   !- Field 18
  For: AllOtherDays,                      !- Field 19
  Until: 24:00,                           !- Field 20
  15.6;                                   !- Field 21

OS:ScheduleTypeLimits,
  {df1757e3-e4c1-4898-81ee-506d76c309d4}, !- Handle
  Temperature,                            !- Name
  -60,                                    !- Lower Limit Value {BasedOnField A4}
  200,                                    !- Upper Limit Value {BasedOnField A4}
  CONTINUOUS,                             !- Numeric Type
  Temperature;                            !- Unit Type

OS:Schedule:Compact,
  {fa33d2e6-ab39-4efe-a20e-9de37504a9af}, !- Handle
  CLGSETP_SCH,                            !- Name
  {df1757e3-e4c1-4898-81ee-506d76c309d4}, !- Schedule Type Limits Name
  Through: 12/31,                         !- Field 1
  For: Weekdays SummerDesignDay,          !- Field 2
  Until: 06:00,                           !- Field 3
  26.7,                                   !- Field 4
  Until: 22:00,                           !- Field 5
  24.0,                                   !- Field 6
  Until: 24:00,                           !- Field 7
  26.7,                                   !- Field 8
  For: Saturday,                          !- Field 9
  Until: 06:00,                           !- Field 10
  26.7,                                   !- Field 11
  Until: 18:00,                           !- Field 12
  24.0,                                   !- Field 13
  Until: 24:00,                           !- Field 14
  26.7,                                   !- Field 15
  For: AllOtherDays,                      !- Field 16
  Until: 24:00,                           !- Field 17
  26.7;                                   !- Field 18

OS:Schedule:Compact,
  {50fa8a0e-205e-4fc3-9f9f-8dd1ecdcf2fa}, !- Handle
  BLDG_LIGHT_SCH,                         !- Name
  {c6679d5d-12b2-42fc-804b-0c5a07d4a915}, !- Schedule Type Limits Name
  Through: 12/31,                         !- Field 1
  For: Weekdays,                          !- Field 2
  Until: 05:00,                           !- Field 3
  0.05,                                   !- Field 4
  Until: 07:00,                           !- Field 5
  0.1,                                    !- Field 6
  Until: 08:00,                           !- Field 7
  0.3,                                    !- Field 8
  Until: 17:00,                           !- Field 9
  0.9,                                    !- Field 10
  Until: 18:00,                           !- Field 11
  0.5,                                    !- Field 12
  Until: 20:00,                           !- Field 13
  0.3,                                    !- Field 14
  Until: 22:00,                           !- Field 15
  0.2,                                    !- Field 16
  Until: 23:00,                           !- Field 17
  0.1,                                    !- Field 18
  Until: 24:00,                           !- Field 19
  0.05,                                   !- Field 20
  For: Saturday,                          !- Field 21
  Until: 06:00,                           !- Field 22
  0.05,                                   !- Field 23
  Until: 08:00,                           !- Field 24
  0.1,                                    !- Field 25
  Until: 12:00,                           !- Field 26
  0.3,                                    !- Field 27
  Until: 17:00,                           !- Field 28
  0.15,                                   !- Field 29
  Until: 24:00,                           !- Field 30
  0.05,                                   !- Field 31
  For: SummerDesignDay,                   !- Field 32
  Until: 24:00,                           !- Field 33
  1.0,                                    !- Field 34
  For: WinterDesignDay,                   !- Field 35
  Until: 24:00,                           !- Field 36
  0.0,                                    !- Field 37
  For: AllOtherDays,                      !- Field 38
  Until: 24:00,                           !- Field 39
  0.05;                                   !- Field 40

OS:ScheduleTypeLimits,
  {c6679d5d-12b2-42fc-804b-0c5a07d4a915}, !- Handle
  Fraction,                               !- Name
  0,                                      !- Lower Limit Value {BasedOnField A4}
  1,                                      !- Upper Limit Value {BasedOnField A4}
  CONTINUOUS;                             !- Numeric Type

OS:Material,
  {fcd71154-d246-4c74-a766-754b6bd776ef}, !- Handle
  Metal Decking,                          !- Name
  MediumSmooth,                           !- Roughness
  0.0015,                                 !- Thickness {m}
  45.006,                                 !- Conductivity {W/m-K}
  7680,                                   !- Density {kg/m3}
  418.4,                                  !- Specific Heat {J/kg-K}
  0.9,                                    !- Thermal Absorptance
  0.7,                                    !- Solar Absorptance
  0.3;                                    !- Visible Absorptance

OS:Material,
  {1c555455-218f-43f5-be96-3e568e9f6b3a}, !- Handle
  Metal Roofing,                          !- Name
  MediumSmooth,                           !- Roughness
  0.0015,                                 !- Thickness {m}
  45.006,                                 !- Conductivity {W/m-K}
  7680,                                   !- Density {kg/m3}
  418.4,                                  !- Specific Heat {J/kg-K}
  0.9,                                    !- Thermal Absorptance
  0.7,                                    !- Solar Absorptance
  0.3;                                    !- Visible Absorptance

OS:SubSurface,
  {5258990b-21ac-469f-93f5-a5be0b3f3f68}, !- Handle
  Perimeter_ZN_1_wall_south_Window_6,     !- Name
  FixedWindow,                            !- Sub Surface Type
  {ba7a4871-68bd-43a5-9c96-97832168a45d}, !- Construction Name
  {af06479f-f8cd-4fbc-bce9-fb88039d4223}, !- Surface Name
  ,                                       !- Outside Boundary Condition Object
  ,                                       !- View Factor to Ground
  ,                                       !- Shading Control Name
  ,                                       !- Frame and Divider Name
  1,                                      !- Multiplier
  ,                                       !- Number of Vertices
  24.47, 0, 2.424,                        !- X,Y,Z Vertex 1 {m}
  24.47, 0, 0.9,                          !- X,Y,Z Vertex 2 {m}
  26.3, 0, 0.9,                           !- X,Y,Z Vertex 3 {m}
  26.3, 0, 2.424;                         !- X,Y,Z Vertex 4 {m}

OS:Construction,
  {ba7a4871-68bd-43a5-9c96-97832168a45d}, !- Handle
  Window Non-res Fixed,                   !- Name
  ,                                       !- Surface Rendering Name
  {a1f99b50-8e11-482f-954c-65088c8b0056}; !- Layer 1

OS:WindowMaterial:SimpleGlazingSystem,
  {a1f99b50-8e11-482f-954c-65088c8b0056}, !- Handle
  NonRes Fixed Assembly Window,           !- Name
  3.23646,                                !- U-Factor {W/m2-K}
  0.39;                                   !- Solar Heat Gain Coefficient

OS:Surface,
  {af06479f-f8cd-4fbc-bce9-fb88039d4223}, !- Handle
  Perimeter_ZN_1_wall_south,              !- Name
  Wall,                                   !- Surface Type
  {6603aef5-cda2-4f53-ba2c-b676f7f25c25}, !- Construction Name
  {629e23a4-074d-4042-81e3-87c5a1fcf349}, !- Space Name
  Outdoors,                               !- Outside Boundary Condition
  ,                                       !- Outside Boundary Condition Object
  SunExposed,                             !- Sun Exposure
  WindExposed,                            !- Wind Exposure
  ,                                       !- View Factor to Ground
  ,                                       !- Number of Vertices
  0, 0, 3.05,                             !- X,Y,Z Vertex 1 {m}
  0, 0, 0,                                !- X,Y,Z Vertex 2 {m}
  27.69, 0, 0,                            !- X,Y,Z Vertex 3 {m}
  27.69, 0, 3.05;                         !- X,Y,Z Vertex 4 {m}

OS:Construction,
  {6603aef5-cda2-4f53-ba2c-b676f7f25c25}, !- Handle
  Mass Non-res Ext Wall,                  !- Name
  ,                                       !- Surface Rendering Name
  {315b9266-ec61-434b-839e-9e37cc41e6d9}, !- Layer 1
  {ca042b96-e4f7-4b4a-893a-2ec213adbf4f}, !- Layer 2
  {1919f6a9-bb74-495c-9d05-aecbd550aad8}, !- Layer 3
  {8bc82899-bd76-4845-8758-08fdcc716ed3}; !- Layer 4

OS:Material,
  {315b9266-ec61-434b-839e-9e37cc41e6d9}, !- Handle
  1IN Stucco,                             !- Name
  Smooth,                                 !- Roughness
  0.0253,                                 !- Thickness {m}
  0.6918,                                 !- Conductivity {W/m-K}
  1858,                                   !- Density {kg/m3}
  837,                                    !- Specific Heat {J/kg-K}
  0.9,                                    !- Thermal Absorptance
  0.92,                                   !- Solar Absorptance
  0.92;                                   !- Visible Absorptance

OS:Material,
  {ca042b96-e4f7-4b4a-893a-2ec213adbf4f}, !- Handle
  8IN CONCRETE HW,                        !- Name
  Rough,                                  !- Roughness
  0.2032,                                 !- Thickness {m}
  1.311,                                  !- Conductivity {W/m-K}
  2240,                                   !- Density {kg/m3}
  836.8,                                  !- Specific Heat {J/kg-K}
  0.9,                                    !- Thermal Absorptance
  0.7,                                    !- Solar Absorptance
  0.7;                                    !- Visible Absorptance

OS:Material,
  {1919f6a9-bb74-495c-9d05-aecbd550aad8}, !- Handle
  Mass NonRes Wall Insulation,            !- Name
  MediumRough,                            !- Roughness
  0.0495494599433393,                     !- Thickness {m}
  0.049,                                  !- Conductivity {W/m-K}
  265,                                    !- Density {kg/m3}
  836.8,                                  !- Specific Heat {J/kg-K}
  0.9,                                    !- Thermal Absorptance
  0.7,                                    !- Solar Absorptance
  0.7;                                    !- Visible Absorptance

OS:Material,
  {8bc82899-bd76-4845-8758-08fdcc716ed3}, !- Handle
  1/2IN Gypsum,                           !- Name
  Smooth,                                 !- Roughness
  0.0127,                                 !- Thickness {m}
  0.16,                                   !- Conductivity {W/m-K}
  784.9,                                  !- Density {kg/m3}
  830,                                    !- Specific Heat {J/kg-K}
  0.9,                                    !- Thermal Absorptance
  0.92,                                   !- Solar Absorptance
  0.92;                                   !- Visible Absorptance

OS:InternalMass:Definition,
  {84e02cb6-b066-46da-ab59-9532aff4a386}, !- Handle
  Perimeter_ZN_4 Internal Mass Definition, !- Name
  {41718b6b-87eb-4a76-bb14-ff1a378c0659}, !- Construction Name
  SurfaceArea,                            !- Design Level Calculation Method
  134.6,                                  !- Surface Area {m2}
  ,                                       !- Surface Area per Space Floor Area {dimensionless}
  ;                                       !- Surface Area per Person {m2/person}

OS:Construction,
  {41718b6b-87eb-4a76-bb14-ff1a378c0659}, !- Handle
  InteriorFurnishings,                    !- Name
  ,                                       !- Surface Rendering Name
  {89eb7736-9622-445f-b856-b59480db6574}; !- Layer 1

OS:Material,
  {89eb7736-9622-445f-b856-b59480db6574}, !- Handle
  Std Wood 6inch,                         !- Name
  MediumSmooth,                           !- Roughness
  0.15,                                   !- Thickness {m}
  0.12,                                   !- Conductivity {W/m-K}
  540,                                    !- Density {kg/m3}
  1210,                                   !- Specific Heat {J/kg-K}
  0.9,                                    !- Thermal Absorptance
  0.7,                                    !- Solar Absorptance
  0.7;                                    !- Visible Absorptance

OS:InternalMass,
  {bf41adda-c1e2-4eee-898a-467ba7104ac7}, !- Handle
  Perimeter_ZN_4 Internal Mass,           !- Name
  {84e02cb6-b066-46da-ab59-9532aff4a386}, !- Internal Mass Definition Name
  {016e09a1-506c-47c1-9ebe-61980b0c1715}; !- Space or SpaceType Name

OS:Space,
  {016e09a1-506c-47c1-9ebe-61980b0c1715}, !- Handle
  Perimeter_ZN_4,                         !- Name
  {ef5cd496-87a0-49f4-bb46-baf1cecaf537}, !- Space Type Name
  ,                                       !- Default Construction Set Name
  ,                                       !- Default Schedule Set Name
  0,                                      !- Direction of Relative North {deg}
  0,                                      !- X Origin {m}
  0,                                      !- Y Origin {m}
  0,                                      !- Z Origin {m}
  {3977d4ed-dd8a-4ec6-b317-9c3b090221a2}, !- Building Story Name
  {913906f6-4711-4a38-9175-de0516f142f8}, !- Thermal Zone Name
  Yes,                                    !- Part of Total Floor Area
  {849bf729-41e9-4ac7-ae8f-bc3f6081924c}; !- Design Specification Outdoor Air Object Name

OS:ThermostatSetpoint:DualSetpoint,
  {1de3b2a9-4825-48e5-b8c9-c25303313311}, !- Handle
  {b21c1d51-cabf-4fdc-b6dd-ebc5462e2d78}, !- Name
  {f941bdd6-b7df-401b-a3f6-2ee6d0502d62}, !- Heating Setpoint Temperature Schedule Name
  {fa33d2e6-ab39-4efe-a20e-9de37504a9af}; !- Cooling Setpoint Temperature Schedule Name

OS:SpaceInfiltration:DesignFlowRate,
  {90aa395e-265c-4624-9425-3e11e9515220}, !- Handle
  Attic_Infiltration,                     !- Name
  {55856d0f-9290-4d86-8b4f-ae6c709437d7}, !- Space or SpaceType Name
  {b2afd2f1-5a56-4cc9-bf95-4dc198ae6666}, !- Schedule Name
  AirChanges/Hour,                        !- Design Flow Rate Calculation Method
  ,                                       !- Design Flow Rate {m3/s}
  ,                                       !- Flow per Space Floor Area {m3/s-m2}
  ,                                       !- Flow per Exterior Surface Area {m3/s-m2}
  1,                                      !- Air Changes per Hour {1/hr}
  1,                                      !- Constant Term Coefficient
  0,                                      !- Temperature Term Coefficient
  0,                                      !- Velocity Term Coefficient
  0;                                      !- Velocity Squared Term Coefficient

OS:Space,
  {55856d0f-9290-4d86-8b4f-ae6c709437d7}, !- Handle
  Attic,                                  !- Name
  {a8496528-ad36-4b32-b78f-f2a568e4bdcb}, !- Space Type Name
  ,                                       !- Default Construction Set Name
  ,                                       !- Default Schedule Set Name
  0,                                      !- Direction of Relative North {deg}
  0,                                      !- X Origin {m}
  0,                                      !- Y Origin {m}
  0,                                      !- Z Origin {m}
  {3977d4ed-dd8a-4ec6-b317-9c3b090221a2}, !- Building Story Name
  ,                                       !- Thermal Zone Name
  No;                                     !- Part of Total Floor Area

OS:Schedule:Compact,
  {b2afd2f1-5a56-4cc9-bf95-4dc198ae6666}, !- Handle
  ALWAYS_ON,                              !- Name
  {e2790a19-f553-4119-bed7-0971cdc1442e}, !- Schedule Type Limits Name
  Through: 12/31,                         !- Field 1
  For: AllDays,                           !- Field 2
  Until: 24:00,                           !- Field 3
  1;                                      !- Field 4

OS:ScheduleTypeLimits,
  {e2790a19-f553-4119-bed7-0971cdc1442e}, !- Handle
  On/Off,                                 !- Name
  0,                                      !- Lower Limit Value {BasedOnField A4}
  1,                                      !- Upper Limit Value {BasedOnField A4}
  DISCRETE,                               !- Numeric Type
  Availability;                           !- Unit Type

OS:ScheduleTypeLimits,
  {f75cb7b6-84ed-4443-8c4c-36da1f1a771a}, !- Handle
  Humidity,                               !- Name
  10,                                     !- Lower Limit Value {BasedOnField A4}
  90,                                     !- Upper Limit Value {BasedOnField A4}
  CONTINUOUS;                             !- Numeric Type

OS:SpaceInfiltration:DesignFlowRate,
  {8a3545b1-84b3-4f64-a0a2-e1d2f5e07c7d}, !- Handle
  Perimeter_ZN_4_Infiltration,            !- Name
  {016e09a1-506c-47c1-9ebe-61980b0c1715}, !- Space or SpaceType Name
  {bc87014b-3524-406e-b7d1-35224d147be2}, !- Schedule Name
  Flow/ExteriorArea,                      !- Design Flow Rate Calculation Method
  ,                                       !- Design Flow Rate {m3/s}
  ,                                       !- Flow per Space Floor Area {m3/s-m2}
  0.000302,                               !- Flow per Exterior Surface Area {m3/s-m2}
  ,                                       !- Air Changes per Hour {1/hr}
  1,                                      !- Constant Term Coefficient
  0,                                      !- Temperature Term Coefficient
  0,                                      !- Velocity Term Coefficient
  0;                                      !- Velocity Squared Term Coefficient

OS:Schedule:Compact,
  {bc87014b-3524-406e-b7d1-35224d147be2}, !- Handle
  INFIL_QUARTER_ON_SCH,                   !- Name
  {c6679d5d-12b2-42fc-804b-0c5a07d4a915}, !- Schedule Type Limits Name
  Through: 12/31,                         !- Field 1
  For: Weekdays SummerDesignDay,          !- Field 2
  Until: 06:00,                           !- Field 3
  1.0,                                    !- Field 4
  Until: 22:00,                           !- Field 5
  0.25,                                   !- Field 6
  Until: 24:00,                           !- Field 7
  1.0,                                    !- Field 8
  For: Saturday WinterDesignDay,          !- Field 9
  Until: 06:00,                           !- Field 10
  1.0,                                    !- Field 11
  Until: 18:00,                           !- Field 12
  0.25,                                   !- Field 13
  Until: 24:00,                           !- Field 14
  1.0,                                    !- Field 15
  For: Sunday Holidays AllOtherDays,      !- Field 16
  Until: 24:00,                           !- Field 17
  1.0;                                    !- Field 18

OS:SubSurface,
  {83a2adf7-3f99-46c1-8010-a7aa033a41a0}, !- Handle
  Perimeter_ZN_3_wall_north_Window_6,     !- Name
  FixedWindow,                            !- Sub Surface Type
  {ba7a4871-68bd-43a5-9c96-97832168a45d}, !- Construction Name
  {a3b18356-2561-4765-8ec0-e3c5afa3bbb6}, !- Surface Name
  ,                                       !- Outside Boundary Condition Object
  ,                                       !- View Factor to Ground
  ,                                       !- Shading Control Name
  ,                                       !- Frame and Divider Name
  1,                                      !- Multiplier
  ,                                       !- Number of Vertices
  3.22, 18.46, 2.424,                     !- X,Y,Z Vertex 1 {m}
  3.22, 18.46, 0.9,                       !- X,Y,Z Vertex 2 {m}
  1.39, 18.46, 0.9,                       !- X,Y,Z Vertex 3 {m}
  1.39, 18.46, 2.424;                     !- X,Y,Z Vertex 4 {m}

OS:Surface,
  {a3b18356-2561-4765-8ec0-e3c5afa3bbb6}, !- Handle
  Perimeter_ZN_3_wall_north,              !- Name
  Wall,                                   !- Surface Type
  {6603aef5-cda2-4f53-ba2c-b676f7f25c25}, !- Construction Name
  {a99cdde1-dbd6-4efd-b433-e38fadd073b5}, !- Space Name
  Outdoors,                               !- Outside Boundary Condition
  ,                                       !- Outside Boundary Condition Object
  SunExposed,                             !- Sun Exposure
  WindExposed,                            !- Wind Exposure
  ,                                       !- View Factor to Ground
  ,                                       !- Number of Vertices
  27.69, 18.46, 3.05,                     !- X,Y,Z Vertex 1 {m}
  27.69, 18.46, 0,                        !- X,Y,Z Vertex 2 {m}
  0, 18.46, 0,                            !- X,Y,Z Vertex 3 {m}
  0, 18.46, 3.05;                         !- X,Y,Z Vertex 4 {m}

OS:Space,
  {a99cdde1-dbd6-4efd-b433-e38fadd073b5}, !- Handle
  Perimeter_ZN_3,                         !- Name
  {ef5cd496-87a0-49f4-bb46-baf1cecaf537}, !- Space Type Name
  ,                                       !- Default Construction Set Name
  ,                                       !- Default Schedule Set Name
  0,                                      !- Direction of Relative North {deg}
  0,                                      !- X Origin {m}
  0,                                      !- Y Origin {m}
  0,                                      !- Z Origin {m}
  {3977d4ed-dd8a-4ec6-b317-9c3b090221a2}, !- Building Story Name
  {af3d6b7f-f289-47ce-8be9-3d4b1dac1d0c}, !- Thermal Zone Name
  Yes,                                    !- Part of Total Floor Area
  {0683a8a7-d570-4127-94f6-04fc22bf831c}; !- Design Specification Outdoor Air Object Name

OS:ThermostatSetpoint:DualSetpoint,
  {1a55e50f-9db3-4a3b-9675-5d07da1c806f}, !- Handle
  {d7c5ddd0-462b-46e2-a3ce-1d279f8ae2c2}, !- Name
  {f941bdd6-b7df-401b-a3f6-2ee6d0502d62}, !- Heating Setpoint Temperature Schedule Name
  {fa33d2e6-ab39-4efe-a20e-9de37504a9af}; !- Cooling Setpoint Temperature Schedule Name

OS:People:Definition,
  {5520ce66-0a2d-4ed6-b503-74a27d190137}, !- Handle
  Perimeter_ZN_1 People Definition,       !- Name
  Area/Person,                            !- Number of People Calculation Method
  ,                                       !- Number of People {people}
  ,                                       !- People per Space Floor Area {person/m2}
  18.58,                                  !- Space Floor Area per Person {m2/person}
  0.3,                                    !- Fraction Radiant
  ,                                       !- Sensible Heat Fraction
  ,                                       !- Carbon Dioxide Generation Rate {m3/s-W}
  No,                                     !- Enable ASHRAE 55 Comfort Warnings
  ZoneAveraged;                           !- Mean Radiant Temperature Calculation Type

OS:People,
  {70fd19a9-0421-4e25-b8f4-2fa2f9689ad4}, !- Handle
  Perimeter_ZN_1 People,                  !- Name
  {5520ce66-0a2d-4ed6-b503-74a27d190137}, !- People Definition Name
  {629e23a4-074d-4042-81e3-87c5a1fcf349}, !- Space or SpaceType Name
  {ed41c66b-e77b-45cd-9178-4ff6cd420b01}, !- Number of People Schedule Name
  {643e2c55-f246-44e7-bc81-36d8511a8547}, !- Activity Level Schedule Name
  ,                                       !- Surface Name/Angle Factor List Name
  {4d9f5d8f-926d-4fd9-82bd-de5adde5caca}; !- Work Efficiency Schedule Name

OS:Schedule:Compact,
  {ed41c66b-e77b-45cd-9178-4ff6cd420b01}, !- Handle
  BLDG_OCC_SCH,                           !- Name
  {c6679d5d-12b2-42fc-804b-0c5a07d4a915}, !- Schedule Type Limits Name
  Through: 12/31,                         !- Field 1
  For: SummerDesignDay,                   !- Field 2
  Until: 06:00,                           !- Field 3
  0.0,                                    !- Field 4
  Until: 22:00,                           !- Field 5
  1.0,                                    !- Field 6
  Until: 24:00,                           !- Field 7
  0.05,                                   !- Field 8
  For: Weekdays,                          !- Field 9
  Until: 06:00,                           !- Field 10
  0.0,                                    !- Field 11
  Until: 07:00,                           !- Field 12
  0.1,                                    !- Field 13