
OS:Version,
  {7d1015e0-0787-4a6b-87e7-c515b5c8f110}, !- Handle
  1.8.5;                                  !- Version Identifier

OS:Site,
  {29a72ef1-a32f-48da-8440-d51a052289f6}, !- Handle
  USA IL-CHICAGO-OHARE,                   !- Name
  41.77,                                  !- Latitude {deg}
  -87.75,                                 !- Longitude {deg}
  -6,                                     !- Time Zone {hr}
  190,                                    !- Elevation {m}
  City;                                   !- Terrain

OS:SimulationControl,
  {47476d45-b817-4b8c-bc92-f87282761271}, !- Handle
  Yes,                                    !- Do Zone Sizing Calculation
  Yes,                                    !- Do System Sizing Calculation
  Yes,                                    !- Do Plant Sizing Calculation
  No,                                     !- Run Simulation for Sizing Periods
  Yes,                                    !- Run Simulation for Weather File Run Periods
  0.04,                                   !- Loads Convergence Tolerance Value
  0.2,                                    !- Temperature Convergence Tolerance Value {deltaC}
  FullInteriorAndExterior,                !- Solar Distribution
  25,                                     !- Maximum Number of Warmup Days
  6;                                      !- Minimum Number of Warmup Days

OS:People:Definition,
  {9106140f-c820-485e-8047-0eaf27723da2}, !- Handle
  Perimeter_ZN_4 People Definition,       !- Name
  Area/Person,                            !- Number of People Calculation Method
  ,                                       !- Number of People {people}
  ,                                       !- People per Space Floor Area {person/m2}
  18.58,                                  !- Space Floor Area per Person {m2/person}
  0.3,                                    !- Fraction Radiant
  ,                                       !- Sensible Heat Fraction
  ,                                       !- Carbon Dioxide Generation Rate {m3/s-W}
  No,                                     !- Enable ASHRAE 55 Comfort Warnings
  ZoneAveraged;                           !- Mean Radiant Temperature Calculation Type

OS:People,
  {edb97d96-71e9-427b-9a23-7a9675ce8359}, !- Handle
  Perimeter_ZN_4 People,                  !- Name
  {9106140f-c820-485e-8047-0eaf27723da2}, !- People Definition Name
  {1cc8e632-372e-42fa-aa86-7a119feb3ea0}, !- Space or SpaceType Name
  {80259595-1343-472e-a97b-f92add9c59fd}, !- Number of People Schedule Name
  {27996e97-bc4a-44b8-9dec-4101e0eff0b8}, !- Activity Level Schedule Name
  ,                                       !- Surface Name/Angle Factor List Name
  {ff4dda8a-029d-4953-adc8-f42fe0beef61}; !- Work Efficiency Schedule Name

OS:Space,
  {1cc8e632-372e-42fa-aa86-7a119feb3ea0}, !- Handle
  Perimeter_ZN_4,                         !- Name
  {0b79ca15-e5bf-42fa-be90-6d32b94e7677}, !- Space Type Name
  ,                                       !- Default Construction Set Name
  ,                                       !- Default Schedule Set Name
  0,                                      !- Direction of Relative North {deg}
  0,                                      !- X Origin {m}
  0,                                      !- Y Origin {m}
  0,                                      !- Z Origin {m}
  {e4413352-41e9-4719-af1d-1b8268ccb33f}, !- Building Story Name
  {ce2c60a7-6b17-45a5-ba9a-058a315adf11}, !- Thermal Zone Name
  Yes,                                    !- Part of Total Floor Area
  {bce9cf64-6397-49cb-b937-9e87b5ee0d24}; !- Design Specification Outdoor Air Object Name

OS:ThermostatSetpoint:DualSetpoint,
  {7e398858-08b4-43fc-abc2-ddd945d9003a}, !- Handle
  {e4a1d787-eaa8-4044-a572-5b8e97070c27}, !- Name
  {5d9696a7-a7ff-4fc4-8b45-64feb1a0a992}, !- Heating Setpoint Temperature Schedule Name
  {aae3a4cd-64a6-46c5-89ec-3344df665df3}; !- Cooling Setpoint Temperature Schedule Name

OS:Schedule:Compact,
  {5d9696a7-a7ff-4fc4-8b45-64feb1a0a992}, !- Handle
  HTGSETP_SCH,                            !- Name
  {093a6f7a-5e0c-45e6-8eb7-8d0439a4cd20}, !- Schedule Type Limits Name
  Through: 12/31,                         !- Field 1
  For: Weekdays,                          !- Field 2
  Until: 06:00,                           !- Field 3
  15.6,                                   !- Field 4
  Until: 22:00,                           !- Field 5
  21.0,                                   !- Field 6
  Until: 24:00,                           !- Field 7
  15.6,                                   !- Field 8
  For: Saturday,                          !- Field 9
  Until: 06:00,                           !- Field 10
  15.6,                                   !- Field 11
  Until: 18:00,                           !- Field 12
  21.0,                                   !- Field 13
  Until: 24:00,                           !- Field 14
  15.6,                                   !- Field 15
  For: WinterDesignDay,                   !- Field 16
  Until: 24:00,                           !- Field 17
  21.0,                                   !- Field 18
  For: AllOtherDays,                      !- Field 19
  Until: 24:00,                           !- Field 20
  15.6;                                   !- Field 21

OS:ScheduleTypeLimits,
  {093a6f7a-5e0c-45e6-8eb7-8d0439a4cd20}, !- Handle
  Temperature,                            !- Name
  -60,                                    !- Lower Limit Value {BasedOnField A4}
  200,                                    !- Upper Limit Value {BasedOnField A4}
  CONTINUOUS,                             !- Numeric Type
  Temperature;                            !- Unit Type

OS:Schedule:Compact,
  {aae3a4cd-64a6-46c5-89ec-3344df665df3}, !- Handle
  CLGSETP_SCH,                            !- Name
  {093a6f7a-5e0c-45e6-8eb7-8d0439a4cd20}, !- Schedule Type Limits Name
  Through: 12/31,                         !- Field 1
  For: Weekdays SummerDesignDay,          !- Field 2
  Until: 06:00,                           !- Field 3
  26.7,                                   !- Field 4
  Until: 22:00,                           !- Field 5
  24.0,                                   !- Field 6
  Until: 24:00,                           !- Field 7
  26.7,                                   !- Field 8
  For: Saturday,                          !- Field 9
  Until: 06:00,                           !- Field 10
  26.7,                                   !- Field 11
  Until: 18:00,                           !- Field 12
  24.0,                                   !- Field 13
  Until: 24:00,                           !- Field 14
  26.7,                                   !- Field 15
  For: AllOtherDays,                      !- Field 16
  Until: 24:00,                           !- Field 17
  26.7;                                   !- Field 18

OS:Schedule:Compact,
  {80259595-1343-472e-a97b-f92add9c59fd}, !- Handle
  BLDG_OCC_SCH,                           !- Name
  {2792c453-9d90-484e-99b8-0ed1135d0b4a}, !- Schedule Type Limits Name
  Through: 12/31,                         !- Field 1
  For: SummerDesignDay,                   !- Field 2
  Until: 06:00,                           !- Field 3
  0.0,                                    !- Field 4
  Until: 22:00,                           !- Field 5
  1.0,                                    !- Field 6
  Until: 24:00,                           !- Field 7
  0.05,                                   !- Field 8
  For: Weekdays,                          !- Field 9
  Until: 06:00,                           !- Field 10
  0.0,                                    !- Field 11
  Until: 07:00,                           !- Field 12
  0.1,                                    !- Field 13
  Until: 08:00,                           !- Field 14
  0.2,                                    !- Field 15
  Until: 12:00,                           !- Field 16
  0.95,                                   !- Field 17
  Until: 13:00,                           !- Field 18
  0.5,                                    !- Field 19
  Until: 17:00,                           !- Field 20
  0.95,                                   !- Field 21
  Until: 18:00,                           !- Field 22
  0.3,                                    !- Field 23
  Until: 20:00,                           !- Field 24
  0.1,                                    !- Field 25
  Until: 24:00,                           !- Field 26
  0.05,                                   !- Field 27
  For: Saturday,                          !- Field 28
  Until: 06:00,                           !- Field 29
  0.0,                                    !- Field 30
  Until: 08:00,                           !- Field 31
  0.1,                                    !- Field 32
  Until: 12:00,                           !- Field 33
  0.3,                                    !- Field 34
  Until: 17:00,                           !- Field 35
  0.1,                                    !- Field 36
  Until: 24:00,                           !- Field 37
  0.0,                                    !- Field 38
  For: AllOtherDays,                      !- Field 39
  Until: 24:00,                           !- Field 40
  0.0;                                    !- Field 41

OS:ScheduleTypeLimits,
  {2792c453-9d90-484e-99b8-0ed1135d0b4a}, !- Handle
  Fraction,                               !- Name
  0,                                      !- Lower Limit Value {BasedOnField A4}
  1,                                      !- Upper Limit Value {BasedOnField A4}
  CONTINUOUS;                             !- Numeric Type

OS:Schedule:Compact,
  {27996e97-bc4a-44b8-9dec-4101e0eff0b8}, !- Handle
  ACTIVITY_SCH,                           !- Name
  {cfc476e5-4e88-426e-8f93-fbcc0857e1de}, !- Schedule Type Limits Name
  Through: 12/31,                         !- Field 1
  For: AllDays,                           !- Field 2
  Until: 24:00,                           !- Field 3
  120;                                    !- Field 4

OS:ScheduleTypeLimits,
  {99759327-fd70-42f6-8e3b-2ce3ee659f25}, !- Handle
  {bf277821-7528-410f-8870-62a077e2235a}; !- Name

OS:ScheduleTypeLimits,
  {cfc476e5-4e88-426e-8f93-fbcc0857e1de}, !- Handle
  ActivityLevel,                          !- Name
  0,                                      !- Lower Limit Value {BasedOnField A4}
  ,                                       !- Upper Limit Value {BasedOnField A4}
  Continuous,                             !- Numeric Type
  ActivityLevel;                          !- Unit Type

OS:Schedule:Compact,
  {ff4dda8a-029d-4953-adc8-f42fe0beef61}, !- Handle
  WORK_EFF_SCH,                           !- Name
  {2792c453-9d90-484e-99b8-0ed1135d0b4a}, !- Schedule Type Limits Name
  Through: 12/31,                         !- Field 1
  For: AllDays,                           !- Field 2
  Until: 24:00,                           !- Field 3
  0.0;                                    !- Field 4

OS:Surface,
  {6477bf89-1984-4310-8316-de5c02bda386}, !- Handle
  Attic_floor_perimeter_west,             !- Name
  Floor,                                  !- Surface Type
  {623efe6c-71b3-4c53-94c6-40b46873d1f7}, !- Construction Name
  {260b7ab5-327c-46c0-93c2-08d68cd67f3c}, !- Space Name
  Surface,                                !- Outside Boundary Condition
  {56f92af3-6559-4a70-a0b7-3c1f5d28bced}, !- Outside Boundary Condition Object
  NoSun,                                  !- Sun Exposure
  NoWind,                                 !- Wind Exposure
  ,                                       !- View Factor to Ground
  ,                                       !- Number of Vertices
  0, 18.46, 3.05,                         !- X,Y,Z Vertex 1 {m}
  5, 13.46, 3.05,                         !- X,Y,Z Vertex 2 {m}
  5, 5, 3.05,                             !- X,Y,Z Vertex 3 {m}
  0, 0, 3.05;                             !- X,Y,Z Vertex 4 {m}

OS:Construction,
  {623efe6c-71b3-4c53-94c6-40b46873d1f7}, !- Handle
  Attic Non-res Floor,                    !- Name
  ,                                       !- Surface Rendering Name
  {cfc9d8d2-2e0c-4b16-a2ac-85988778899e}, !- Layer 1
  {9787bf35-9ba2-408d-bdc6-8d0118adb7ba}, !- Layer 2
  {cfc9d8d2-2e0c-4b16-a2ac-85988778899e}; !- Layer 3

OS:Material,
  {cfc9d8d2-2e0c-4b16-a2ac-85988778899e}, !- Handle
  1/2IN Gypsum,                           !- Name
  Smooth,                                 !- Roughness
  0.0127,                                 !- Thickness {m}
  0.16,                                   !- Conductivity {W/m-K}
  784.9,                                  !- Density {kg/m3}
  830,                                    !- Specific Heat {J/kg-K}
  0.9,                                    !- Thermal Absorptance
  0.92,                                   !- Solar Absorptance
  0.92;                                   !- Visible Absorptance

OS:Material,
  {9787bf35-9ba2-408d-bdc6-8d0118adb7ba}, !- Handle
  AtticFloor NonRes Insulation,           !- Name
  MediumRough,                            !- Roughness
  0.236804989096202,                      !- Thickness {m}
  0.049,                                  !- Conductivity {W/m-K}
  265,                                    !- Density {kg/m3}
  836.8,                                  !- Specific Heat {J/kg-K}
  0.9,                                    !- Thermal Absorptance
  0.7,                                    !- Solar Absorptance
  0.7;                                    !- Visible Absorptance

OS:Space,
  {260b7ab5-327c-46c0-93c2-08d68cd67f3c}, !- Handle
  Attic,                                  !- Name
  {9bc1156c-92dd-4f4a-aa9e-8f2eacf61bd8}, !- Space Type Name
  ,                                       !- Default Construction Set Name
  ,                                       !- Default Schedule Set Name
  0,                                      !- Direction of Relative North {deg}
  0,                                      !- X Origin {m}
  0,                                      !- Y Origin {m}
  0,                                      !- Z Origin {m}
  {e4413352-41e9-4719-af1d-1b8268ccb33f}, !- Building Story Name
  ,                                       !- Thermal Zone Name
  No;                                     !- Part of Total Floor Area

OS:Lights:Definition,
  {859b9634-cd87-4b8c-ac23-3405ca1b5e7a}, !- Handle
  Perimeter_ZN_1_Lights Definition,       !- Name
  Watts/Area,                             !- Design Level Calculation Method
  ,                                       !- Lighting Level {W}
  10.76,                                  !- Watts per Space Floor Area {W/m2}
  ,                                       !- Watts per Person {W/person}
  0.7,                                    !- Fraction Radiant
  0.2,                                    !- Fraction Visible
  0,                                      !- Return Air Fraction
  No;                                     !- Return Air Fraction Calculated from Plenum Temperature

OS:Lights,
  {7e4b60ff-2e07-48e1-a653-7ea976518611}, !- Handle
  Perimeter_ZN_1_Lights,                  !- Name
  {859b9634-cd87-4b8c-ac23-3405ca1b5e7a}, !- Lights Definition Name
  {598de613-4e98-4a0c-9018-fea0348fc27f}, !- Space or SpaceType Name
  {6aa330cb-0d8d-4665-b578-f9476f932728}, !- Schedule Name
  1,                                      !- Fraction Replaceable
  ,                                       !- Multiplier
  General;                                !- End-Use Subcategory

OS:Space,
  {598de613-4e98-4a0c-9018-fea0348fc27f}, !- Handle
  Perimeter_ZN_1,                         !- Name
  {0b79ca15-e5bf-42fa-be90-6d32b94e7677}, !- Space Type Name
  ,                                       !- Default Construction Set Name
  ,                                       !- Default Schedule Set Name
  0,                                      !- Direction of Relative North {deg}
  0,                                      !- X Origin {m}
  0,                                      !- Y Origin {m}
  0,                                      !- Z Origin {m}
  {e4413352-41e9-4719-af1d-1b8268ccb33f}, !- Building Story Name
  {e54ab5bb-d562-4ceb-a1fa-cd45d4152442}, !- Thermal Zone Name
  Yes,                                    !- Part of Total Floor Area
  {dee9180b-788a-4442-aa86-eb9e4af5b64a}; !- Design Specification Outdoor Air Object Name

OS:ThermostatSetpoint:DualSetpoint,
  {ac637910-b06d-4b77-af66-5359e6d51dcd}, !- Handle
  {532d373b-efe6-46a2-b608-d8d05504ea0c}, !- Name
  {5d9696a7-a7ff-4fc4-8b45-64feb1a0a992}, !- Heating Setpoint Temperature Schedule Name
  {aae3a4cd-64a6-46c5-89ec-3344df665df3}; !- Cooling Setpoint Temperature Schedule Name

OS:Schedule:Compact,
  {6aa330cb-0d8d-4665-b578-f9476f932728}, !- Handle
  BLDG_LIGHT_SCH,                         !- Name
  {2792c453-9d90-484e-99b8-0ed1135d0b4a}, !- Schedule Type Limits Name
  Through: 12/31,                         !- Field 1
  For: Weekdays,                          !- Field 2
  Until: 05:00,                           !- Field 3
  0.05,                                   !- Field 4
  Until: 07:00,                           !- Field 5
  0.1,                                    !- Field 6
  Until: 08:00,                           !- Field 7
  0.3,                                    !- Field 8
  Until: 17:00,                           !- Field 9
  0.9,                                    !- Field 10
  Until: 18:00,                           !- Field 11
  0.5,                                    !- Field 12
  Until: 20:00,                           !- Field 13
  0.3,                                    !- Field 14
  Until: 22:00,                           !- Field 15
  0.2,                                    !- Field 16
  Until: 23:00,                           !- Field 17
  0.1,                                    !- Field 18
  Until: 24:00,                           !- Field 19
  0.05,                                   !- Field 20
  For: Saturday,                          !- Field 21
  Until: 06:00,                           !- Field 22
  0.05,                                   !- Field 23
  Until: 08:00,                           !- Field 24
  0.1,                                    !- Field 25
  Until: 12:00,                           !- Field 26
  0.3,                                    !- Field 27
  Until: 17:00,                           !- Field 28
  0.15,                                   !- Field 29
  Until: 24:00,                           !- Field 30
  0.05,                                   !- Field 31
  For: SummerDesignDay,                   !- Field 32
  Until: 24:00,                           !- Field 33
  1.0,                                    !- Field 34
  For: WinterDesignDay,                   !- Field 35
  Until: 24:00,                           !- Field 36
  0.0,                                    !- Field 37
  For: AllOtherDays,                      !- Field 38
  Until: 24:00,                           !- Field 39
  0.05;                                   !- Field 40

OS:SubSurface,
  {ad2e8128-a35a-4e4b-bd91-dc2ae83f86b2}, !- Handle
  Perimeter_ZN_1_wall_south_Window_3,     !- Name
  FixedWindow,                            !- Sub Surface Type
  {cd8f0c87-a3f7-4a0b-ae9b-4322a9abecb3}, !- Construction Name
  {8a317c99-610f-4127-a4f1-366f056710ab}, !- Surface Name
  ,                                       !- Outside Boundary Condition Object
  ,                                       !- View Factor to Ground
  ,                                       !- Shading Control Name
  ,                                       !- Frame and Divider Name
  1,                                      !- Multiplier
  ,                                       !- Number of Vertices
  10.62, 0, 2.424,                        !- X,Y,Z Vertex 1 {m}
  10.62, 0, 0.9,                          !- X,Y,Z Vertex 2 {m}
  12.45, 0, 0.9,                          !- X,Y,Z Vertex 3 {m}
  12.45, 0, 2.424;                        !- X,Y,Z Vertex 4 {m}

OS:Construction,
  {cd8f0c87-a3f7-4a0b-ae9b-4322a9abecb3}, !- Handle
  Window Non-res Fixed,                   !- Name
  ,                                       !- Surface Rendering Name
  {964f6f00-be0a-4f6c-819b-3f3871a83e69}; !- Layer 1

OS:WindowMaterial:SimpleGlazingSystem,
  {964f6f00-be0a-4f6c-819b-3f3871a83e69}, !- Handle
  NonRes Fixed Assembly Window,           !- Name
  3.23646,                                !- U-Factor {W/m2-K}
  0.39;                                   !- Solar Heat Gain Coefficient

OS:Surface,
  {8a317c99-610f-4127-a4f1-366f056710ab}, !- Handle
  Perimeter_ZN_1_wall_south,              !- Name
  Wall,                                   !- Surface Type
  {676716a7-8f60-45b0-829b-96fdd59ed982}, !- Construction Name
  {598de613-4e98-4a0c-9018-fea0348fc27f}, !- Space Name
  Outdoors,                               !- Outside Boundary Condition
  ,                                       !- Outside Boundary Condition Object
  SunExposed,                             !- Sun Exposure
  WindExposed,                            !- Wind Exposure
  ,                                       !- View Factor to Ground
  ,                                       !- Number of Vertices
  0, 0, 3.05,                             !- X,Y,Z Vertex 1 {m}
  0, 0, 0,                                !- X,Y,Z Vertex 2 {m}
  27.69, 0, 0,                            !- X,Y,Z Vertex 3 {m}
  27.69, 0, 3.05;                         !- X,Y,Z Vertex 4 {m}

OS:Construction,
  {676716a7-8f60-45b0-829b-96fdd59ed982}, !- Handle
  Mass Non-res Ext Wall,                  !- Name
  ,                                       !- Surface Rendering Name
  {68f3f0a5-f316-4f03-a482-db6e63b4ffc7}, !- Layer 1
  {c27f776c-17ec-49a5-8850-ed6e88e577fa}, !- Layer 2
  {fc454de0-5f11-4b66-8a7e-8c7b20a906e9}, !- Layer 3
  {cfc9d8d2-2e0c-4b16-a2ac-85988778899e}; !- Layer 4

OS:Material,
  {68f3f0a5-f316-4f03-a482-db6e63b4ffc7}, !- Handle
  1IN Stucco,                             !- Name
  Smooth,                                 !- Roughness
  0.0253,                                 !- Thickness {m}
  0.6918,                                 !- Conductivity {W/m-K}
  1858,                                   !- Density {kg/m3}
  837,                                    !- Specific Heat {J/kg-K}
  0.9,                                    !- Thermal Absorptance
  0.92,                                   !- Solar Absorptance
  0.92;                                   !- Visible Absorptance

OS:Material,
  {c27f776c-17ec-49a5-8850-ed6e88e577fa}, !- Handle
  8IN CONCRETE HW,                        !- Name
  Rough,                                  !- Roughness
  0.2032,                                 !- Thickness {m}
  1.311,                                  !- Conductivity {W/m-K}
  2240,                                   !- Density {kg/m3}
  836.8,                                  !- Specific Heat {J/kg-K}
  0.9,                                    !- Thermal Absorptance
  0.7,                                    !- Solar Absorptance
  0.7;                                    !- Visible Absorptance

OS:Material,
  {fc454de0-5f11-4b66-8a7e-8c7b20a906e9}, !- Handle
  Mass NonRes Wall Insulation,            !- Name
  MediumRough,                            !- Roughness
  0.0495494599433393,                     !- Thickness {m}
  0.049,                                  !- Conductivity {W/m-K}
  265,                                    !- Density {kg/m3}
  836.8,                                  !- Specific Heat {J/kg-K}
  0.9,                                    !- Thermal Absorptance
  0.7,                                    !- Solar Absorptance
  0.7;                                    !- Visible Absorptance

OS:Schedule:Compact,
  {6a1a93f5-9e02-4da4-8058-d03a46b72135}, !- Handle
  AIR_VELO_SCH,                           !- Name
  ,                                       !- Schedule Type Limits Name
  Through: 12/31,                         !- Field 1
  For: AllDays,                           !- Field 2
  Until: 24:00,                           !- Field 3
  0.2;                                    !- Field 4

OS:ScheduleTypeLimits,
  {51c15e10-acc2-445c-a2b8-59373c0f5924}, !- Handle
  {ae5559d1-6002-4d6f-a208-93cfd50e476d}; !- Name

OS:InternalMass:Definition,
  {89dc9dc6-3e08-4a64-bcfa-a1e59ab6234f}, !- Handle
  Perimeter_ZN_2 Internal Mass Definition, !- Name
  {0bc21645-b014-4aa4-a374-8e7fb28eb3b7}, !- Construction Name
  SurfaceArea,                            !- Design Level Calculation Method
  134.6,                                  !- Surface Area {m2}
  ,                                       !- Surface Area per Space Floor Area {dimensionless}
  ;                                       !- Surface Area per Person {m2/person}

OS:Construction,
  {0bc21645-b014-4aa4-a374-8e7fb28eb3b7}, !- Handle
  InteriorFurnishings,                    !- Name
  ,                                       !- Surface Rendering Name
  {98e922a0-25c9-48a8-8032-a990e589f74f}; !- Layer 1

OS:Material,
  {98e922a0-25c9-48a8-8032-a990e589f74f}, !- Handle
  Std Wood 6inch,                         !- Name
  MediumSmooth,                           !- Roughness
  0.15,                                   !- Thickness {m}
  0.12,                                   !- Conductivity {W/m-K}
  540,                                    !- Density {kg/m3}
  1210,                                   !- Specific Heat {J/kg-K}
  0.9,                                    !- Thermal Absorptance
  0.7,                                    !- Solar Absorptance
  0.7;                                    !- Visible Absorptance

OS:InternalMass,
  {a17b3c4c-eac6-46df-aa30-6097cf71f472}, !- Handle
  Perimeter_ZN_2 Internal Mass,           !- Name
  {89dc9dc6-3e08-4a64-bcfa-a1e59ab6234f}, !- Internal Mass Definition Name
  {bb81ec87-a446-46a0-adfe-6c0a07461364}; !- Space or SpaceType Name

OS:Space,
  {bb81ec87-a446-46a0-adfe-6c0a07461364}, !- Handle
  Perimeter_ZN_2,                         !- Name
  {0b79ca15-e5bf-42fa-be90-6d32b94e7677}, !- Space Type Name
  ,                                       !- Default Construction Set Name
  ,                                       !- Default Schedule Set Name
  0,                                      !- Direction of Relative North {deg}
  0,                                      !- X Origin {m}
  0,                                      !- Y Origin {m}
  0,                                      !- Z Origin {m}
  {e4413352-41e9-4719-af1d-1b8268ccb33f}, !- Building Story Name
  {3528fd07-d1d4-4739-985b-d72c1305db4b}, !- Thermal Zone Name
  Yes,                                    !- Part of Total Floor Area
  {5a2c5bd3-e165-424b-a4a1-adb5a50279c0}; !- Design Specification Outdoor Air Object Name

OS:ThermostatSetpoint:DualSetpoint,
  {5cfbeb05-750e-4151-b70a-daafd85f31ef}, !- Handle
  {1a3f5097-51fe-4244-abca-40e55bdaf47e}, !- Name
  {5d9696a7-a7ff-4fc4-8b45-64feb1a0a992}, !- Heating Setpoint Temperature Schedule Name
  {aae3a4cd-64a6-46c5-89ec-3344df665df3}; !- Cooling Setpoint Temperature Schedule Name

OS:Surface,
  {747a648b-04a6-40b7-905a-b0f3d5a3ded6}, !- Handle
  Perimeter_ZN_1_floor,                   !- Name
  Floor,                                  !- Surface Type
  {b38324e5-e1a9-4a73-9e44-168a7a578b43}, !- Construction Name
  {598de613-4e98-4a0c-9018-fea0348fc27f}, !- Space Name
  Ground,                                 !- Outside Boundary Condition
  ,                                       !- Outside Boundary Condition Object
  NoSun,                                  !- Sun Exposure
  NoWind,                                 !- Wind Exposure
  ,                                       !- View Factor to Ground
  ,                                       !- Number of Vertices
  22.69, 5, 0,                            !- X,Y,Z Vertex 1 {m}
  27.69, 0, 0,                            !- X,Y,Z Vertex 2 {m}
  0, 0, 0,                                !- X,Y,Z Vertex 3 {m}
  5, 5, 0;                                !- X,Y,Z Vertex 4 {m}

OS:Construction,
  {b38324e5-e1a9-4a73-9e44-168a7a578b43}, !- Handle
  ext-slab,                               !- Name
  ,                                       !- Surface Rendering Name
  {30421efc-9062-4bf0-9e89-4fa3909623a0}, !- Layer 1
  {515c3bf4-edae-438a-be89-afe0fb419da6}; !- Layer 2

OS:Material,
  {30421efc-9062-4bf0-9e89-4fa3909623a0}, !- Handle
  HW CONCRETE,                            !- Name
  Rough,                                  !- Roughness
  0.1016,                                 !- Thickness {m}
  1.311,                                  !- Conductivity {W/m-K}
  2240,                                   !- Density {kg/m3}
  836.8,                                  !- Specific Heat {J/kg-K}
  0.9,                                    !- Thermal Absorptance
  0.7,                                    !- Solar Absorptance
  0.7;                                    !- Visible Absorptance

OS:Material:NoMass,
  {515c3bf4-edae-438a-be89-afe0fb419da6}, !- Handle
  CP02 CARPET PAD,                        !- Name
  VeryRough,                              !- Roughness
  0.2165,                                 !- Thermal Resistance {m2-K/W}
  0.9,                                    !- Thermal Absorptance
  0.7,                                    !- Solar Absorptance
  0.8;                                    !- Visible Absorptance

OS:ShadowCalculation,
  {4e264397-1729-4150-9c75-6e229f4d5b0d}, !- Handle
  15000,                                  !- Calculation Frequency
  15000;                                  !- Maximum Figures in Shadow Overlap Calculations

OS:InternalMass:Definition,
  {c5756381-e51f-4be6-913f-25cd1872889e}, !- Handle
  Perimeter_ZN_3 Internal Mass Definition, !- Name
  {0bc21645-b014-4aa4-a374-8e7fb28eb3b7}, !- Construction Name
  SurfaceArea,                            !- Design Level Calculation Method
  226.9,                                  !- Surface Area {m2}
  ,                                       !- Surface Area per Space Floor Area {dimensionless}