
OS:Version,
  {4fa3f8fe-feca-401f-9c64-2e5ae8a68b6e}, !- Handle
  1.8.0;                                  !- Version Identifier

OS:Site,
  {b5e42ae5-7230-4d64-9d30-116dc9d8e07a}, !- Handle
  USA IL-CHICAGO-OHARE,                   !- Name
  41.77,                                  !- Latitude {deg}
  -87.75,                                 !- Longitude {deg}
  -6,                                     !- Time Zone {hr}
  190,                                    !- Elevation {m}
  City;                                   !- Terrain

OS:SimulationControl,
  {a0d8caf2-a140-47b7-a14f-865739671e01}, !- Handle
  Yes,                                    !- Do Zone Sizing Calculation
  Yes,                                    !- Do System Sizing Calculation
  Yes,                                    !- Do Plant Sizing Calculation
  No,                                     !- Run Simulation for Sizing Periods
  Yes,                                    !- Run Simulation for Weather File Run Periods
  0.04,                                   !- Loads Convergence Tolerance Value
  0.2,                                    !- Temperature Convergence Tolerance Value {deltaC}
  FullInteriorAndExterior,                !- Solar Distribution
  25,                                     !- Maximum Number of Warmup Days
  6;                                      !- Minimum Number of Warmup Days

OS:Meter,
  {851d158f-82a0-4df6-b53f-c1b9aacba2f3}, !- Handle
  Heating:Gas,                            !- Name
  hourly,                                 !- Reporting Frequency
  False,                                  !- Meter File Only
  False;                                  !- Cumulative

OS:Schedule:Compact,
  {db29dd72-01ad-4d5f-8eab-8742bf6ab282}, !- Handle
  INFIL_QUARTER_ON_SCH,                   !- Name
  {2b038a7b-4a29-41c3-bc59-fb4ed74ab45e}, !- Schedule Type Limits Name
  Through: 12/31,                         !- Field 1
  For: Weekdays SummerDesignDay,          !- Field 2
  Until: 06:00,                           !- Field 3
  1.0,                                    !- Field 4
  Until: 22:00,                           !- Field 5
  0.25,                                   !- Field 6
  Until: 24:00,                           !- Field 7
  1.0,                                    !- Field 8
  For: Saturday WinterDesignDay,          !- Field 9
  Until: 06:00,                           !- Field 10
  1.0,                                    !- Field 11
  Until: 18:00,                           !- Field 12
  0.25,                                   !- Field 13
  Until: 24:00,                           !- Field 14
  1.0,                                    !- Field 15
  For: Sunday Holidays AllOtherDays,      !- Field 16
  Until: 24:00,                           !- Field 17
  1.0;                                    !- Field 18

OS:ScheduleTypeLimits,
  {2b038a7b-4a29-41c3-bc59-fb4ed74ab45e}, !- Handle
  Fraction,                               !- Name
  0,                                      !- Lower Limit Value {BasedOnField A4}
  1,                                      !- Upper Limit Value {BasedOnField A4}
  CONTINUOUS;                             !- Numeric Type

OS:SubSurface,
  {95119dbf-60f3-4714-94ca-9081712345da}, !- Handle
  Perimeter_ZN_1_wall_south_Window_3,     !- Name
  FixedWindow,                            !- Sub Surface Type
  {5789e296-5cf3-41a9-be57-30ec018caef7}, !- Construction Name
  {598a5da9-2a09-443e-820f-74332dc165de}, !- Surface Name
  ,                                       !- Outside Boundary Condition Object
  ,                                       !- View Factor to Ground
  ,                                       !- Shading Control Name
  ,                                       !- Frame and Divider Name
  1,                                      !- Multiplier
  ,                                       !- Number of Vertices
  10.62, 0, 2.424,                        !- X,Y,Z Vertex 1 {m}
  10.62, 0, 0.9,                          !- X,Y,Z Vertex 2 {m}
  12.45, 0, 0.9,                          !- X,Y,Z Vertex 3 {m}
  12.45, 0, 2.424;                        !- X,Y,Z Vertex 4 {m}

OS:Construction,
  {5789e296-5cf3-41a9-be57-30ec018caef7}, !- Handle
  Window Non-res Fixed,                   !- Name
  ,                                       !- Surface Rendering Name
  {65d6ccb1-fcd7-429d-8860-f0a1ee84903b}; !- Layer 1

OS:WindowMaterial:SimpleGlazingSystem,
  {65d6ccb1-fcd7-429d-8860-f0a1ee84903b}, !- Handle
  NonRes Fixed Assembly Window,           !- Name
  3.23646,                                !- U-Factor {W/m2-K}
  0.39;                                   !- Solar Heat Gain Coefficient

OS:Surface,
  {598a5da9-2a09-443e-820f-74332dc165de}, !- Handle
  Perimeter_ZN_1_wall_south,              !- Name
  Wall,                                   !- Surface Type
  {cbd30a44-7cf6-4459-a8b6-e1da47d8cf70}, !- Construction Name
  {3c585075-7f69-4aa2-8771-c2b3600c8301}, !- Space Name
  Outdoors,                               !- Outside Boundary Condition
  ,                                       !- Outside Boundary Condition Object
  SunExposed,                             !- Sun Exposure
  WindExposed,                            !- Wind Exposure
  ,                                       !- View Factor to Ground
  ,                                       !- Number of Vertices
  0, 0, 3.05,                             !- X,Y,Z Vertex 1 {m}
  0, 0, 0,                                !- X,Y,Z Vertex 2 {m}
  27.69, 0, 0,                            !- X,Y,Z Vertex 3 {m}
  27.69, 0, 3.05;                         !- X,Y,Z Vertex 4 {m}

OS:Construction,
  {cbd30a44-7cf6-4459-a8b6-e1da47d8cf70}, !- Handle
  Mass Non-res Ext Wall,                  !- Name
  ,                                       !- Surface Rendering Name
  {25b90667-3e4f-46c7-a28a-7cbd897e9d2c}, !- Layer 1
  {f8e0b9cb-1b2a-486e-903b-f04de56d594e}, !- Layer 2
  {9ae1d539-c770-4322-9e74-9dd32a891732}, !- Layer 3
  {12db5b1a-3ea2-4aa0-9904-183ce0fceb24}; !- Layer 4

OS:Material,
  {25b90667-3e4f-46c7-a28a-7cbd897e9d2c}, !- Handle
  1IN Stucco,                             !- Name
  Smooth,                                 !- Roughness
  0.0253,                                 !- Thickness {m}
  0.6918,                                 !- Conductivity {W/m-K}
  1858,                                   !- Density {kg/m3}
  837,                                    !- Specific Heat {J/kg-K}
  0.9,                                    !- Thermal Absorptance
  0.92,                                   !- Solar Absorptance
  0.92;                                   !- Visible Absorptance

OS:Material,
  {f8e0b9cb-1b2a-486e-903b-f04de56d594e}, !- Handle
  8IN CONCRETE HW,                        !- Name
  Rough,                                  !- Roughness
  0.2032,                                 !- Thickness {m}
  1.311,                                  !- Conductivity {W/m-K}
  2240,                                   !- Density {kg/m3}
  836.8,                                  !- Specific Heat {J/kg-K}
  0.9,                                    !- Thermal Absorptance
  0.7,                                    !- Solar Absorptance
  0.7;                                    !- Visible Absorptance

OS:Material,
  {9ae1d539-c770-4322-9e74-9dd32a891732}, !- Handle
  Mass NonRes Wall Insulation,            !- Name
  MediumRough,                            !- Roughness
  0.0495494599433393,                     !- Thickness {m}
  0.049,                                  !- Conductivity {W/m-K}
  265,                                    !- Density {kg/m3}
  836.8,                                  !- Specific Heat {J/kg-K}
  0.9,                                    !- Thermal Absorptance
  0.7,                                    !- Solar Absorptance
  0.7;                                    !- Visible Absorptance

OS:Material,
  {12db5b1a-3ea2-4aa0-9904-183ce0fceb24}, !- Handle
  1/2IN Gypsum,                           !- Name
  Smooth,                                 !- Roughness
  0.0127,                                 !- Thickness {m}
  0.16,                                   !- Conductivity {W/m-K}
  784.9,                                  !- Density {kg/m3}
  830,                                    !- Specific Heat {J/kg-K}
  0.9,                                    !- Thermal Absorptance
  0.92,                                   !- Solar Absorptance
  0.92;                                   !- Visible Absorptance

OS:Space,
  {3c585075-7f69-4aa2-8771-c2b3600c8301}, !- Handle
  Perimeter_ZN_1,                         !- Name
  {4f616902-8f8f-42d1-babe-3a84ee15827c}, !- Space Type Name
  ,                                       !- Default Construction Set Name
  ,                                       !- Default Schedule Set Name
  0,                                      !- Direction of Relative North {deg}
  0,                                      !- X Origin {m}
  0,                                      !- Y Origin {m}
  0,                                      !- Z Origin {m}
  {67dae624-2638-4cbc-80ab-cb3a9b257489}, !- Building Story Name
  {f63af7be-394d-4935-b45c-72b8b353a782}, !- Thermal Zone Name
  Yes,                                    !- Part of Total Floor Area
  {bf7c9aa6-af1b-45f1-9f09-e9af7802e2d3}; !- Design Specification Outdoor Air Object Name

OS:ThermostatSetpoint:DualSetpoint,
  {2b2be98e-cfcd-4bcb-831b-424bd823c006}, !- Handle
  {af364773-a666-4e6b-a216-c30528286fac}, !- Name
  {ee2754b0-4703-4419-a23b-50c61e1ed00f}, !- Heating Setpoint Temperature Schedule Name
  {7831f812-6c56-4adc-be94-1b0ac853f71e}; !- Cooling Setpoint Temperature Schedule Name

OS:Schedule:Compact,
  {ee2754b0-4703-4419-a23b-50c61e1ed00f}, !- Handle
  HTGSETP_SCH,                            !- Name
  {f792aebd-c3c8-40e7-932f-f74b35b935ed}, !- Schedule Type Limits Name
  Through: 12/31,                         !- Field 1
  For: Weekdays,                          !- Field 2
  Until: 06:00,                           !- Field 3
  15.6,                                   !- Field 4
  Until: 22:00,                           !- Field 5
  21.0,                                   !- Field 6
  Until: 24:00,                           !- Field 7
  15.6,                                   !- Field 8
  For: Saturday,                          !- Field 9
  Until: 06:00,                           !- Field 10
  15.6,                                   !- Field 11
  Until: 18:00,                           !- Field 12
  21.0,                                   !- Field 13
  Until: 24:00,                           !- Field 14
  15.6,                                   !- Field 15
  For: WinterDesignDay,                   !- Field 16
  Until: 24:00,                           !- Field 17
  21.0,                                   !- Field 18
  For: AllOtherDays,                      !- Field 19
  Until: 24:00,                           !- Field 20
  15.6;                                   !- Field 21

OS:ScheduleTypeLimits,
  {f792aebd-c3c8-40e7-932f-f74b35b935ed}, !- Handle
  Temperature,                            !- Name
  -60,                                    !- Lower Limit Value {BasedOnField A4}
  200,                                    !- Upper Limit Value {BasedOnField A4}
  CONTINUOUS,                             !- Numeric Type
  Temperature;                            !- Unit Type

OS:Schedule:Compact,
  {7831f812-6c56-4adc-be94-1b0ac853f71e}, !- Handle
  CLGSETP_SCH,                            !- Name
  {f792aebd-c3c8-40e7-932f-f74b35b935ed}, !- Schedule Type Limits Name
  Through: 12/31,                         !- Field 1
  For: Weekdays SummerDesignDay,          !- Field 2
  Until: 06:00,                           !- Field 3
  26.7,                                   !- Field 4
  Until: 22:00,                           !- Field 5
  24.0,                                   !- Field 6
  Until: 24:00,                           !- Field 7
  26.7,                                   !- Field 8
  For: Saturday,                          !- Field 9
  Until: 06:00,                           !- Field 10
  26.7,                                   !- Field 11
  Until: 18:00,                           !- Field 12
  24.0,                                   !- Field 13
  Until: 24:00,                           !- Field 14
  26.7,                                   !- Field 15
  For: AllOtherDays,                      !- Field 16
  Until: 24:00,                           !- Field 17
  26.7;                                   !- Field 18

OS:Material,
  {0ed4299e-0c5a-420a-94f6-969d68bea8c0}, !- Handle
  Roof Membrane,                          !- Name
  VeryRough,                              !- Roughness
  0.0095,                                 !- Thickness {m}
  0.16,                                   !- Conductivity {W/m-K}
  1121.29,                                !- Density {kg/m3}
  1460,                                   !- Specific Heat {J/kg-K}
  0.9,                                    !- Thermal Absorptance
  0.7,                                    !- Solar Absorptance
  0.7;                                    !- Visible Absorptance

OS:InternalMass:Definition,
  {3127c204-398f-43ba-b01a-13a0adbc9cee}, !- Handle
  Core_ZN Internal Mass Definition,       !- Name
  {a0f0d4ad-c806-4b5a-9a53-ea2c72987e3e}, !- Construction Name
  SurfaceArea,                            !- Design Level Calculation Method
  299.3148,                               !- Surface Area {m2}
  ,                                       !- Surface Area per Space Floor Area {dimensionless}
  ;                                       !- Surface Area per Person {m2/person}

OS:Construction,
  {a0f0d4ad-c806-4b5a-9a53-ea2c72987e3e}, !- Handle
  InteriorFurnishings,                    !- Name
  ,                                       !- Surface Rendering Name
  {88307630-fcf3-4573-b1dd-8dcb25dd243e}; !- Layer 1

OS:Material,
  {88307630-fcf3-4573-b1dd-8dcb25dd243e}, !- Handle
  Std Wood 6inch,                         !- Name
  MediumSmooth,                           !- Roughness
  0.15,                                   !- Thickness {m}
  0.12,                                   !- Conductivity {W/m-K}
  540,                                    !- Density {kg/m3}
  1210,                                   !- Specific Heat {J/kg-K}
  0.9,                                    !- Thermal Absorptance
  0.7,                                    !- Solar Absorptance
  0.7;                                    !- Visible Absorptance

OS:InternalMass,
  {f6e0cb66-53b5-41d3-91a8-e7193de887d3}, !- Handle
  Core_ZN Internal Mass,                  !- Name
  {3127c204-398f-43ba-b01a-13a0adbc9cee}, !- Internal Mass Definition Name
  {96380961-8307-465c-87f3-9883744909ed}; !- Space or SpaceType Name

OS:Space,
  {96380961-8307-465c-87f3-9883744909ed}, !- Handle
  Core_ZN,                                !- Name
  {4f616902-8f8f-42d1-babe-3a84ee15827c}, !- Space Type Name
  ,                                       !- Default Construction Set Name
  ,                                       !- Default Schedule Set Name
  0,                                      !- Direction of Relative North {deg}
  0,                                      !- X Origin {m}
  0,                                      !- Y Origin {m}
  0,                                      !- Z Origin {m}
  {67dae624-2638-4cbc-80ab-cb3a9b257489}, !- Building Story Name
  {dc36fb7c-ef36-4155-bf91-dc53d3bb93fc}, !- Thermal Zone Name
  Yes,                                    !- Part of Total Floor Area
  {d7a3a180-2be5-433e-a90e-da075fe3fb9b}; !- Design Specification Outdoor Air Object Name

OS:ThermostatSetpoint:DualSetpoint,
  {1ff0d791-711d-415f-891b-57327e074de1}, !- Handle
  {51c65818-ea8c-4f9d-b78f-2d58987e4f59}, !- Name
  {ee2754b0-4703-4419-a23b-50c61e1ed00f}, !- Heating Setpoint Temperature Schedule Name
  {7831f812-6c56-4adc-be94-1b0ac853f71e}; !- Cooling Setpoint Temperature Schedule Name

OS:Surface,
  {5ec3ce35-3e1d-4722-a53b-3f35919b3cc3}, !- Handle
  Core_ZN_wall_east,                      !- Name
  Wall,                                   !- Surface Type
  {4882c71c-3b15-42c6-a76b-da0f369eb57e}, !- Construction Name
  {96380961-8307-465c-87f3-9883744909ed}, !- Space Name
  Surface,                                !- Outside Boundary Condition
  {0bf45345-ac8a-4532-8148-66549fae89e6}, !- Outside Boundary Condition Object
  NoSun,                                  !- Sun Exposure
  NoWind,                                 !- Wind Exposure
  ,                                       !- View Factor to Ground
  ,                                       !- Number of Vertices
  22.69, 5, 3.05,                         !- X,Y,Z Vertex 1 {m}
  22.69, 5, 0,                            !- X,Y,Z Vertex 2 {m}
  22.69, 13.46, 0,                        !- X,Y,Z Vertex 3 {m}
  22.69, 13.46, 3.05;                     !- X,Y,Z Vertex 4 {m}

OS:Construction,
  {4882c71c-3b15-42c6-a76b-da0f369eb57e}, !- Handle
  int-walls,                              !- Name
  ,                                       !- Surface Rendering Name
  {12db5b1a-3ea2-4aa0-9904-183ce0fceb24}, !- Layer 1
  {12db5b1a-3ea2-4aa0-9904-183ce0fceb24}; !- Layer 2

OS:Schedule:Compact,
  {864a0ce5-6591-45d4-b863-29d27c83ab17}, !- Handle
  Water Equipment Temp Sched,             !- Name
  {f792aebd-c3c8-40e7-932f-f74b35b935ed}, !- Schedule Type Limits Name
  Through: 12/31,                         !- Field 1
  For: AllDays,                           !- Field 2
  Until: 24:00,                           !- Field 3
  43.3;                                   !- Field 4

OS:People:Definition,
  {065952a8-bf46-451f-8ef2-a8a267949e83}, !- Handle
  Perimeter_ZN_1 People Definition,       !- Name
  Area/Person,                            !- Number of People Calculation Method
  ,                                       !- Number of People {people}
  ,                                       !- People per Space Floor Area {person/m2}
  18.58,                                  !- Space Floor Area per Person {m2/person}
  0.3,                                    !- Fraction Radiant
  ,                                       !- Sensible Heat Fraction
  ,                                       !- Carbon Dioxide Generation Rate {m3/s-W}
  No,                                     !- Enable ASHRAE 55 Comfort Warnings
  ZoneAveraged;                           !- Mean Radiant Temperature Calculation Type

OS:People,
  {079f5b5d-1719-472d-a87c-0ca7aabf3b44}, !- Handle
  Perimeter_ZN_1 People,                  !- Name
  {065952a8-bf46-451f-8ef2-a8a267949e83}, !- People Definition Name
  {3c585075-7f69-4aa2-8771-c2b3600c8301}, !- Space or SpaceType Name
  {f5f148a8-95b4-4016-8be1-3aa756887662}, !- Number of People Schedule Name
  {59448eaf-df0c-4415-a45b-6f875de54c91}, !- Activity Level Schedule Name
  ,                                       !- Surface Name/Angle Factor List Name
  {f92d14cf-63bc-44cf-a5d1-ba099219acf8}; !- Work Efficiency Schedule Name

OS:Schedule:Compact,
  {f5f148a8-95b4-4016-8be1-3aa756887662}, !- Handle
  BLDG_OCC_SCH,                           !- Name
  {2b038a7b-4a29-41c3-bc59-fb4ed74ab45e}, !- Schedule Type Limits Name
  Through: 12/31,                         !- Field 1
  For: SummerDesignDay,                   !- Field 2
  Until: 06:00,                           !- Field 3
  0.0,                                    !- Field 4
  Until: 22:00,                           !- Field 5
  1.0,                                    !- Field 6
  Until: 24:00,                           !- Field 7
  0.05,                                   !- Field 8
  For: Weekdays,                          !- Field 9
  Until: 06:00,                           !- Field 10
  0.0,                                    !- Field 11
  Until: 07:00,                           !- Field 12
  0.1,                                    !- Field 13
  Until: 08:00,                           !- Field 14
  0.2,                                    !- Field 15
  Until: 12:00,                           !- Field 16
  0.95,                                   !- Field 17
  Until: 13:00,                           !- Field 18
  0.5,                                    !- Field 19
  Until: 17:00,                           !- Field 20
  0.95,                                   !- Field 21
  Until: 18:00,                           !- Field 22
  0.3,                                    !- Field 23
  Until: 20:00,                           !- Field 24
  0.1,                                    !- Field 25
  Until: 24:00,                           !- Field 26
  0.05,                                   !- Field 27
  For: Saturday,                          !- Field 28
  Until: 06:00,                           !- Field 29
  0.0,                                    !- Field 30
  Until: 08:00,                           !- Field 31
  0.1,                                    !- Field 32
  Until: 12:00,                           !- Field 33
  0.3,                                    !- Field 34
  Until: 17:00,                           !- Field 35
  0.1,                                    !- Field 36
  Until: 24:00,                           !- Field 37
  0.0,                                    !- Field 38
  For: AllOtherDays,                      !- Field 39
  Until: 24:00,                           !- Field 40
  0.0;                                    !- Field 41

OS:Schedule:Compact,
  {59448eaf-df0c-4415-a45b-6f875de54c91}, !- Handle
  ACTIVITY_SCH,                           !- Name
  {5a00b810-ebe8-4ceb-b001-247e7cdc9a54}, !- Schedule Type Limits Name
  Through: 12/31,                         !- Field 1
  For: AllDays,                           !- Field 2
  Until: 24:00,                           !- Field 3
  120;                                    !- Field 4

OS:ScheduleTypeLimits,
  {a3767daf-5afc-478f-9d54-53e347080949}, !- Handle
  {fb146ce1-1bf7-488c-a569-f53407916e6b}; !- Name

OS:ScheduleTypeLimits,
  {5a00b810-ebe8-4ceb-b001-247e7cdc9a54}, !- Handle
  ActivityLevel,                          !- Name
  0,                                      !- Lower Limit Value {BasedOnField A4}
  ,                                       !- Upper Limit Value {BasedOnField A4}
  Continuous,                             !- Numeric Type
  ActivityLevel;                          !- Unit Type

OS:Schedule:Compact,
  {f92d14cf-63bc-44cf-a5d1-ba099219acf8}, !- Handle
  WORK_EFF_SCH,                           !- Name
  {2b038a7b-4a29-41c3-bc59-fb4ed74ab45e}, !- Schedule Type Limits Name
  Through: 12/31,                         !- Field 1
  For: AllDays,                           !- Field 2
  Until: 24:00,                           !- Field 3
  0.0;                                    !- Field 4

OS:SpaceInfiltration:DesignFlowRate,
  {7c24a179-1162-4422-9a86-4993cb55267a}, !- Handle
  Attic_Infiltration,                     !- Name
  {7f3fe0a2-c4e7-4d24-96ee-b6cb50156d9b}, !- Space or SpaceType Name
  {6cd8c1f5-6d2b-4f6b-bdda-50305b14228f}, !- Schedule Name
  AirChanges/Hour,                        !- Design Flow Rate Calculation Method
  ,                                       !- Design Flow Rate {m3/s}
  ,                                       !- Flow per Space Floor Area {m3/s-m2}
  ,                                       !- Flow per Exterior Surface Area {m3/s-m2}
  1,                                      !- Air Changes per Hour {1/hr}
  1,                                      !- Constant Term Coefficient
  0,                                      !- Temperature Term Coefficient
  0,                                      !- Velocity Term Coefficient
  0;                                      !- Velocity Squared Term Coefficient

OS:Space,
  {7f3fe0a2-c4e7-4d24-96ee-b6cb50156d9b}, !- Handle
  Attic,                                  !- Name
  {f4759287-ea75-491c-bfb6-cb049704b1a6}, !- Space Type Name
  ,                                       !- Default Construction Set Name
  ,                                       !- Default Schedule Set Name
  0,                                      !- Direction of Relative North {deg}
  0,                                      !- X Origin {m}
  0,                                      !- Y Origin {m}
  0,                                      !- Z Origin {m}
  {67dae624-2638-4cbc-80ab-cb3a9b257489}, !- Building Story Name
  ,                                       !- Thermal Zone Name
  No;                                     !- Part of Total Floor Area

OS:Schedule:Compact,
  {6cd8c1f5-6d2b-4f6b-bdda-50305b14228f}, !- Handle
  ALWAYS_ON,                              !- Name
  {f9657c88-9106-4e0f-a454-07e9dc5c8b95}, !- Schedule Type Limits Name
  Through: 12/31,                         !- Field 1
  For: AllDays,                           !- Field 2
  Until: 24:00,                           !- Field 3
  1;                                      !- Field 4

OS:ScheduleTypeLimits,
  {f9657c88-9106-4e0f-a454-07e9dc5c8b95}, !- Handle
  On/Off,                                 !- Name
  0,                                      !- Lower Limit Value {BasedOnField A4}
  1,                                      !- Upper Limit Value {BasedOnField A4}
  DISCRETE,                               !- Numeric Type
  Availability;                           !- Unit Type

OS:Surface,
  {0bf45345-ac8a-4532-8148-66549fae89e6}, !- Handle
  Perimeter_ZN_2_wall_west,               !- Name
  Wall,                                   !- Surface Type
  {4882c71c-3b15-42c6-a76b-da0f369eb57e}, !- Construction Name
  {614856b7-f6d8-43f1-99b7-900ada03e860}, !- Space Name
  Surface,                                !- Outside Boundary Condition
  {5ec3ce35-3e1d-4722-a53b-3f35919b3cc3}, !- Outside Boundary Condition Object
  NoSun,                                  !- Sun Exposure
  NoWind,                                 !- Wind Exposure
  ,                                       !- View Factor to Ground
  ,                                       !- Number of Vertices
  22.69, 13.46, 3.05,                     !- X,Y,Z Vertex 1 {m}
  22.69, 13.46, 0,                        !- X,Y,Z Vertex 2 {m}
  22.69, 5, 0,                            !- X,Y,Z Vertex 3 {m}
  22.69, 5, 3.05;                         !- X,Y,Z Vertex 4 {m}

OS:Space,
  {614856b7-f6d8-43f1-99b7-900ada03e860}, !- Handle
  Perimeter_ZN_2,                         !- Name
  {4f616902-8f8f-42d1-babe-3a84ee15827c}, !- Space Type Name
  ,                                       !- Default Construction Set Name
  ,                                       !- Default Schedule Set Name
  0,                                      !- Direction of Relative North {deg}
  0,                                      !- X Origin {m}
  0,                                      !- Y Origin {m}
  0,                                      !- Z Origin {m}
  {67dae624-2638-4cbc-80ab-cb3a9b257489}, !- Building Story Name
  {931bef9f-16f5-4da5-bf97-f1195504777f}, !- Thermal Zone Name
  Yes,                                    !- Part of Total Floor Area
  {bb50df73-e488-4e63-a101-2d6912cb5950}; !- Design Specification Outdoor Air Object Name

OS:ThermostatSetpoint:DualSetpoint,
  {4e5cb16a-5946-4fcd-bce3-c6bf4e4a4aa3}, !- Handle
  {97e476c1-4d9f-4320-b9f4-58b0931803b3}, !- Name
  {ee2754b0-4703-4419-a23b-50c61e1ed00f}, !- Heating Setpoint Temperature Schedule Name
  {7831f812-6c56-4adc-be94-1b0ac853f71e}; !- Cooling Setpoint Temperature Schedule Name

OS:Material,
  {681e8d70-c2fb-401c-b3d3-e1c0acc95ae6}, !- Handle
  Metal Roofing,                          !- Name
  MediumSmooth,                           !- Roughness
  0.0015,                                 !- Thickness {m}
  45.006,                                 !- Conductivity {W/m-K}
  7680,                                   !- Density {kg/m3}
  418.4,                                  !- Specific Heat {J/kg-K}
  0.9,                                    !- Thermal Absorptance
  0.7,                                    !- Solar Absorptance
  0.3;                                    !- Visible Absorptance

OS:Surface,
  {dede4c71-c47f-4add-b666-4faea892960f}, !- Handle
  Attic_floor_core,                       !- Name
  Floor,                                  !- Surface Type
  {48904fae-17d7-456a-9849-04d5394a6bf7}, !- Construction Name
  {7f3fe0a2-c4e7-4d24-96ee-b6cb50156d9b}, !- Space Name
  Surface,                                !- Outside Boundary Condition
  {3a1c8c87-ee5a-48ae-918a-ea556d7d1b8f}, !- Outside Boundary Condition Object
  NoSun,                                  !- Sun Exposure
  NoWind,                                 !- Wind Exposure
  ,                                       !- View Factor to Ground
  ,                                       !- Number of Vertices
  22.69, 13.46, 3.05,                     !- X,Y,Z Vertex 1 {m}
  22.69, 5, 3.05,                         !- X,Y,Z Vertex 2 {m}
  5, 5, 3.05,                             !- X,Y,Z Vertex 3 {m}
  5, 13.46, 3.05;                         !- X,Y,Z Vertex 4 {m}

OS:Construction,
  {48904fae-17d7-456a-9849-04d5394a6bf7}, !- Handle
  Attic Non-res Floor,                    !- Name
  ,                                       !- Surface Rendering Name
  {12db5b1a-3ea2-4aa0-9904-183ce0fceb24}, !- Layer 1
  {23df783d-be49-4cd0-a0a8-a30875093455}, !- Layer 2
  {12db5b1a-3ea2-4aa0-9904-183ce0fceb24}; !- Layer 3

OS:Material,
  {23df783d-be49-4cd0-a0a8-a30875093455}, !- Handle
  AtticFloor NonRes Insulation,           !- Name
  MediumRough,                            !- Roughness
  0.236804989096202,                      !- Thickness {m}
  0.049,                                  !- Conductivity {W/m-K}
  265,                                    !- Density {kg/m3}
  836.8,                                  !- Specific Heat {J/kg-K}
  0.9,                                    !- Thermal Absorptance
  0.7,                                    !- Solar Absorptance
  0.7;                                    !- Visible Absorptance

OS:Sizing:Parameters,
  {bfc38502-3542-46a8-b5a2-1c87c5a8099c}, !- Handle