
OS:Version,
  {d87e5850-2365-4efd-ad08-e0214fe4df43}, !- Handle
  1.8.5;                                  !- Version Identifier

OS:Site,
  {78b2c979-68e9-430b-a458-b6aeeb7bd0ef}, !- Handle
  USA IL-CHICAGO-OHARE,                   !- Name
  41.77,                                  !- Latitude {deg}
  -87.75,                                 !- Longitude {deg}
  -6,                                     !- Time Zone {hr}
  190,                                    !- Elevation {m}
  City;                                   !- Terrain

OS:SimulationControl,
  {88467dab-bed1-4c3c-9eff-a6e9eb008ef6}, !- Handle
  Yes,                                    !- Do Zone Sizing Calculation
  Yes,                                    !- Do System Sizing Calculation
  Yes,                                    !- Do Plant Sizing Calculation
  No,                                     !- Run Simulation for Sizing Periods
  Yes,                                    !- Run Simulation for Weather File Run Periods
  0.04,                                   !- Loads Convergence Tolerance Value
  0.2,                                    !- Temperature Convergence Tolerance Value {deltaC}
  FullInteriorAndExterior,                !- Solar Distribution
  25,                                     !- Maximum Number of Warmup Days
  6;                                      !- Minimum Number of Warmup Days

OS:Material,
  {d8565287-4970-4ea9-b852-c2bca69a36fe}, !- Handle
  Metal Roofing,                          !- Name
  MediumSmooth,                           !- Roughness
  0.0015,                                 !- Thickness {m}
  45.006,                                 !- Conductivity {W/m-K}
  7680,                                   !- Density {kg/m3}
  418.4,                                  !- Specific Heat {J/kg-K}
  0.9,                                    !- Thermal Absorptance
  0.7,                                    !- Solar Absorptance
  0.3;                                    !- Visible Absorptance

OS:Schedule:Compact,
  {3a8ce805-3e1f-4049-a9fb-f0e13aeb3eeb}, !- Handle
  CLOTHING_SCH,                           !- Name
  ,                                       !- Schedule Type Limits Name
  Through: 04/30,                         !- Field 1
  For: AllDays,                           !- Field 2
  Until: 24:00,                           !- Field 3
  1.0,                                    !- Field 4
  Through: 09/30,                         !- Field 5
  For: AllDays,                           !- Field 6
  Until: 24:00,                           !- Field 7
  0.5,                                    !- Field 8
  Through: 12/31,                         !- Field 9
  For: AllDays,                           !- Field 10
  Until: 24:00,                           !- Field 11
  1.0;                                    !- Field 12

OS:ScheduleTypeLimits,
  {dc7694a8-ec92-4bcd-8c56-1f3b4049c873}, !- Handle
  {4757d6b2-3430-428c-8dd7-9c8c791f07e6}; !- Name

OS:Surface,
  {32a7e836-a42c-4b92-bb4e-5ee6ba9baa87}, !- Handle
  Perimeter_ZN_1_floor,                   !- Name
  Floor,                                  !- Surface Type
  {25477468-3732-4382-ab44-10880c7cbc8f}, !- Construction Name
  {781f31d7-992d-4efd-9ad0-3abe60ad9d73}, !- Space Name
  Ground,                                 !- Outside Boundary Condition
  ,                                       !- Outside Boundary Condition Object
  NoSun,                                  !- Sun Exposure
  NoWind,                                 !- Wind Exposure
  ,                                       !- View Factor to Ground
  ,                                       !- Number of Vertices
  22.69, 5, 0,                            !- X,Y,Z Vertex 1 {m}
  27.69, 0, 0,                            !- X,Y,Z Vertex 2 {m}
  0, 0, 0,                                !- X,Y,Z Vertex 3 {m}
  5, 5, 0;                                !- X,Y,Z Vertex 4 {m}

OS:Construction,
  {25477468-3732-4382-ab44-10880c7cbc8f}, !- Handle
  ext-slab,                               !- Name
  ,                                       !- Surface Rendering Name
  {ca69f9d2-9cda-4ceb-9621-97cfacb37b29}, !- Layer 1
  {f8c81c64-fccd-4841-aa32-e9f9d1870bd1}; !- Layer 2

OS:Material,
  {ca69f9d2-9cda-4ceb-9621-97cfacb37b29}, !- Handle
  HW CONCRETE,                            !- Name
  Rough,                                  !- Roughness
  0.1016,                                 !- Thickness {m}
  1.311,                                  !- Conductivity {W/m-K}
  2240,                                   !- Density {kg/m3}
  836.8,                                  !- Specific Heat {J/kg-K}
  0.9,                                    !- Thermal Absorptance
  0.7,                                    !- Solar Absorptance
  0.7;                                    !- Visible Absorptance

OS:Material:NoMass,
  {f8c81c64-fccd-4841-aa32-e9f9d1870bd1}, !- Handle
  CP02 CARPET PAD,                        !- Name
  VeryRough,                              !- Roughness
  0.2165,                                 !- Thermal Resistance {m2-K/W}
  0.9,                                    !- Thermal Absorptance
  0.7,                                    !- Solar Absorptance
  0.8;                                    !- Visible Absorptance

OS:Space,
  {781f31d7-992d-4efd-9ad0-3abe60ad9d73}, !- Handle
  Perimeter_ZN_1,                         !- Name
  {be9c519d-a1e0-44cf-b8eb-e5dc63e3efc5}, !- Space Type Name
  ,                                       !- Default Construction Set Name
  ,                                       !- Default Schedule Set Name
  0,                                      !- Direction of Relative North {deg}
  0,                                      !- X Origin {m}
  0,                                      !- Y Origin {m}
  0,                                      !- Z Origin {m}
  {7d3864ac-392e-49c9-bc7a-d1d994a4c90b}, !- Building Story Name
  {14e4763c-5701-4e44-adbd-89ae7a202b3c}, !- Thermal Zone Name
  Yes,                                    !- Part of Total Floor Area
  {75107e3c-a73b-473c-bfac-34fecd204c57}; !- Design Specification Outdoor Air Object Name

OS:Schedule:Compact,
  {40f49a0a-c113-4b96-acee-7bb49237818b}, !- Handle
  HTGSETP_SCH,                            !- Name
  {89a887ce-73c1-446e-91a8-beaf40323e6b}, !- Schedule Type Limits Name
  Through: 12/31,                         !- Field 1
  For: Weekdays,                          !- Field 2
  Until: 06:00,                           !- Field 3
  15.6,                                   !- Field 4
  Until: 22:00,                           !- Field 5
  21.0,                                   !- Field 6
  Until: 24:00,                           !- Field 7
  15.6,                                   !- Field 8
  For: Saturday,                          !- Field 9
  Until: 06:00,                           !- Field 10
  15.6,                                   !- Field 11
  Until: 18:00,                           !- Field 12
  21.0,                                   !- Field 13
  Until: 24:00,                           !- Field 14
  15.6,                                   !- Field 15
  For: WinterDesignDay,                   !- Field 16
  Until: 24:00,                           !- Field 17
  21.0,                                   !- Field 18
  For: AllOtherDays,                      !- Field 19
  Until: 24:00,                           !- Field 20
  15.6;                                   !- Field 21

OS:ScheduleTypeLimits,
  {89a887ce-73c1-446e-91a8-beaf40323e6b}, !- Handle
  Temperature,                            !- Name
  -60,                                    !- Lower Limit Value {BasedOnField A4}
  200,                                    !- Upper Limit Value {BasedOnField A4}
  CONTINUOUS,                             !- Numeric Type
  Temperature;                            !- Unit Type

OS:Schedule:Compact,
  {8edc9934-1637-4770-8161-51a80b09d8a4}, !- Handle
  CLGSETP_SCH,                            !- Name
  {89a887ce-73c1-446e-91a8-beaf40323e6b}, !- Schedule Type Limits Name
  Through: 12/31,                         !- Field 1
  For: Weekdays SummerDesignDay,          !- Field 2
  Until: 06:00,                           !- Field 3
  26.7,                                   !- Field 4
  Until: 22:00,                           !- Field 5
  24.0,                                   !- Field 6
  Until: 24:00,                           !- Field 7
  26.7,                                   !- Field 8
  For: Saturday,                          !- Field 9
  Until: 06:00,                           !- Field 10
  26.7,                                   !- Field 11
  Until: 18:00,                           !- Field 12
  24.0,                                   !- Field 13
  Until: 24:00,                           !- Field 14
  26.7,                                   !- Field 15
  For: AllOtherDays,                      !- Field 16
  Until: 24:00,                           !- Field 17
  26.7;                                   !- Field 18

OS:Meter,
  {f6c788c6-e241-4d42-b732-fee03e8a6375}, !- Handle
  InteriorEquipment:Electricity,          !- Name
  hourly,                                 !- Reporting Frequency
  False,                                  !- Meter File Only
  False;                                  !- Cumulative

OS:Schedule:Compact,
  {926619f6-64ab-4c5b-bbc7-3b41f7e82c8b}, !- Handle
  Water Equipment Latent fract sched,     !- Name
  {53cbe3c5-a44c-47a7-88d6-f3684cca4994}, !- Schedule Type Limits Name
  Through: 12/31,                         !- Field 1
  For: AllDays,                           !- Field 2
  Until: 24:00,                           !- Field 3
  0.05;                                   !- Field 4

OS:ScheduleTypeLimits,
  {53cbe3c5-a44c-47a7-88d6-f3684cca4994}, !- Handle
  Fraction,                               !- Name
  0,                                      !- Lower Limit Value {BasedOnField A4}
  1,                                      !- Upper Limit Value {BasedOnField A4}
  CONTINUOUS;                             !- Numeric Type

OS:SubSurface,
  {0a0b461e-2ea3-4623-b8f8-e8df8ab2a16e}, !- Handle
  Perimeter_ZN_4_wall_west_Window_2,      !- Name
  FixedWindow,                            !- Sub Surface Type
  {342ead59-4b99-4074-b3ea-f3aeb986cdee}, !- Construction Name
  {24dfb2f5-878b-4d12-81fa-c36e34c008ad}, !- Surface Name
  ,                                       !- Outside Boundary Condition Object
  ,                                       !- View Factor to Ground
  ,                                       !- Shading Control Name
  ,                                       !- Frame and Divider Name
  1,                                      !- Multiplier
  ,                                       !- Number of Vertices
  0, 12.45, 2.424,                        !- X,Y,Z Vertex 1 {m}
  0, 12.45, 0.9,                          !- X,Y,Z Vertex 2 {m}
  0, 10.62, 0.9,                          !- X,Y,Z Vertex 3 {m}
  0, 10.62, 2.424;                        !- X,Y,Z Vertex 4 {m}

OS:Construction,
  {342ead59-4b99-4074-b3ea-f3aeb986cdee}, !- Handle
  Window Non-res Fixed,                   !- Name
  ,                                       !- Surface Rendering Name
  {6226b415-e2d1-4255-adde-3cd8f4f3f9ea}; !- Layer 1

OS:WindowMaterial:SimpleGlazingSystem,
  {6226b415-e2d1-4255-adde-3cd8f4f3f9ea}, !- Handle
  NonRes Fixed Assembly Window,           !- Name
  3.23646,                                !- U-Factor {W/m2-K}
  0.39;                                   !- Solar Heat Gain Coefficient

OS:Surface,
  {24dfb2f5-878b-4d12-81fa-c36e34c008ad}, !- Handle
  Perimeter_ZN_4_wall_west,               !- Name
  Wall,                                   !- Surface Type
  {d86d3d56-eed1-4fea-b414-db1747958b1a}, !- Construction Name
  {e92420e9-50d7-4c5b-93cb-c6945e256775}, !- Space Name
  Outdoors,                               !- Outside Boundary Condition
  ,                                       !- Outside Boundary Condition Object
  SunExposed,                             !- Sun Exposure
  WindExposed,                            !- Wind Exposure
  ,                                       !- View Factor to Ground
  ,                                       !- Number of Vertices
  0, 18.46, 3.05,                         !- X,Y,Z Vertex 1 {m}
  0, 18.46, 0,                            !- X,Y,Z Vertex 2 {m}
  0, 0, 0,                                !- X,Y,Z Vertex 3 {m}
  0, 0, 3.05;                             !- X,Y,Z Vertex 4 {m}

OS:Construction,
  {d86d3d56-eed1-4fea-b414-db1747958b1a}, !- Handle
  Mass Non-res Ext Wall,                  !- Name
  ,                                       !- Surface Rendering Name
  {117dbfb5-4f91-4200-b266-2ddb47e8f20a}, !- Layer 1
  {d8f0b75f-0ba1-4ac4-b668-d694f01f8c17}, !- Layer 2
  {634ec0f8-3a26-4eb9-aa08-6763bbedf02b}, !- Layer 3
  {289146be-09cc-44a3-951f-a5238c65a8e9}; !- Layer 4

OS:Material,
  {117dbfb5-4f91-4200-b266-2ddb47e8f20a}, !- Handle
  1IN Stucco,                             !- Name
  Smooth,                                 !- Roughness
  0.0253,                                 !- Thickness {m}
  0.6918,                                 !- Conductivity {W/m-K}
  1858,                                   !- Density {kg/m3}
  837,                                    !- Specific Heat {J/kg-K}
  0.9,                                    !- Thermal Absorptance
  0.92,                                   !- Solar Absorptance
  0.92;                                   !- Visible Absorptance

OS:Material,
  {d8f0b75f-0ba1-4ac4-b668-d694f01f8c17}, !- Handle
  8IN CONCRETE HW,                        !- Name
  Rough,                                  !- Roughness
  0.2032,                                 !- Thickness {m}
  1.311,                                  !- Conductivity {W/m-K}
  2240,                                   !- Density {kg/m3}
  836.8,                                  !- Specific Heat {J/kg-K}
  0.9,                                    !- Thermal Absorptance
  0.7,                                    !- Solar Absorptance
  0.7;                                    !- Visible Absorptance

OS:Material,
  {634ec0f8-3a26-4eb9-aa08-6763bbedf02b}, !- Handle
  Mass NonRes Wall Insulation,            !- Name
  MediumRough,                            !- Roughness
  0.0495494599433393,                     !- Thickness {m}
  0.049,                                  !- Conductivity {W/m-K}
  265,                                    !- Density {kg/m3}
  836.8,                                  !- Specific Heat {J/kg-K}
  0.9,                                    !- Thermal Absorptance
  0.7,                                    !- Solar Absorptance
  0.7;                                    !- Visible Absorptance

OS:Material,
  {289146be-09cc-44a3-951f-a5238c65a8e9}, !- Handle
  1/2IN Gypsum,                           !- Name
  Smooth,                                 !- Roughness
  0.0127,                                 !- Thickness {m}
  0.16,                                   !- Conductivity {W/m-K}
  784.9,                                  !- Density {kg/m3}
  830,                                    !- Specific Heat {J/kg-K}
  0.9,                                    !- Thermal Absorptance
  0.92,                                   !- Solar Absorptance
  0.92;                                   !- Visible Absorptance

OS:Space,
  {e92420e9-50d7-4c5b-93cb-c6945e256775}, !- Handle
  Perimeter_ZN_4,                         !- Name
  {be9c519d-a1e0-44cf-b8eb-e5dc63e3efc5}, !- Space Type Name
  ,                                       !- Default Construction Set Name
  ,                                       !- Default Schedule Set Name
  0,                                      !- Direction of Relative North {deg}
  0,                                      !- X Origin {m}
  0,                                      !- Y Origin {m}
  0,                                      !- Z Origin {m}
  {7d3864ac-392e-49c9-bc7a-d1d994a4c90b}, !- Building Story Name
  {bbd75b5b-4482-4d84-a859-67e3e290b6cf}, !- Thermal Zone Name
  Yes,                                    !- Part of Total Floor Area
  {83bbd763-5274-4b90-9097-615e0e1b6563}; !- Design Specification Outdoor Air Object Name

OS:Schedule:Compact,
  {0e798152-2384-4364-ac9e-427f973bca0b}, !- Handle
  Water Equipment Temp Sched,             !- Name
  {89a887ce-73c1-446e-91a8-beaf40323e6b}, !- Schedule Type Limits Name
  Through: 12/31,                         !- Field 1
  For: AllDays,                           !- Field 2
  Until: 24:00,                           !- Field 3
  43.3;                                   !- Field 4

OS:Surface,
  {d48283da-a653-4065-a0e3-d5b0d723cdb1}, !- Handle
  Perimeter_ZN_2_wall_east,               !- Name
  Wall,                                   !- Surface Type
  {d86d3d56-eed1-4fea-b414-db1747958b1a}, !- Construction Name
  {20e9abac-af10-4b16-9697-491308099626}, !- Space Name
  Outdoors,                               !- Outside Boundary Condition
  ,                                       !- Outside Boundary Condition Object
  SunExposed,                             !- Sun Exposure
  WindExposed,                            !- Wind Exposure
  ,                                       !- View Factor to Ground
  ,                                       !- Number of Vertices
  27.69, 0, 3.05,                         !- X,Y,Z Vertex 1 {m}
  27.69, 0, 0,                            !- X,Y,Z Vertex 2 {m}
  27.69, 18.46, 0,                        !- X,Y,Z Vertex 3 {m}
  27.69, 18.46, 3.05;                     !- X,Y,Z Vertex 4 {m}

OS:Space,
  {20e9abac-af10-4b16-9697-491308099626}, !- Handle
  Perimeter_ZN_2,                         !- Name
  {be9c519d-a1e0-44cf-b8eb-e5dc63e3efc5}, !- Space Type Name
  ,                                       !- Default Construction Set Name
  ,                                       !- Default Schedule Set Name
  0,                                      !- Direction of Relative North {deg}
  0,                                      !- X Origin {m}
  0,                                      !- Y Origin {m}
  0,                                      !- Z Origin {m}
  {7d3864ac-392e-49c9-bc7a-d1d994a4c90b}, !- Building Story Name
  {a7974187-8c2e-40aa-aabc-8078f9ed1db4}, !- Thermal Zone Name
  Yes,                                    !- Part of Total Floor Area
  {a0f35bad-3eb9-4985-905d-e673fb779155}; !- Design Specification Outdoor Air Object Name

OS:People:Definition,
  {2bcebf9d-006a-49ad-8598-2f0549dd28ef}, !- Handle
  Perimeter_ZN_2 People Definition,       !- Name
  Area/Person,                            !- Number of People Calculation Method
  ,                                       !- Number of People {people}
  ,                                       !- People per Space Floor Area {person/m2}
  18.58,                                  !- Space Floor Area per Person {m2/person}
  0.3,                                    !- Fraction Radiant
  ,                                       !- Sensible Heat Fraction
  ,                                       !- Carbon Dioxide Generation Rate {m3/s-W}
  No,                                     !- Enable ASHRAE 55 Comfort Warnings
  ZoneAveraged;                           !- Mean Radiant Temperature Calculation Type

OS:People,
  {50673d58-cbe8-4030-b71f-e190096d4eba}, !- Handle
  Perimeter_ZN_2 People,                  !- Name
  {2bcebf9d-006a-49ad-8598-2f0549dd28ef}, !- People Definition Name
  {20e9abac-af10-4b16-9697-491308099626}, !- Space or SpaceType Name
  {2085cecd-b41e-4298-bc1a-969df792c567}, !- Number of People Schedule Name
  {03932b8c-d516-43ca-bff9-108e64438072}, !- Activity Level Schedule Name
  ,                                       !- Surface Name/Angle Factor List Name
  {75b9026a-c632-4ad9-987f-ffb88a986c18}; !- Work Efficiency Schedule Name

OS:Schedule:Compact,
  {2085cecd-b41e-4298-bc1a-969df792c567}, !- Handle
  BLDG_OCC_SCH,                           !- Name
  {53cbe3c5-a44c-47a7-88d6-f3684cca4994}, !- Schedule Type Limits Name
  Through: 12/31,                         !- Field 1
  For: SummerDesignDay,                   !- Field 2
  Until: 06:00,                           !- Field 3
  0.0,                                    !- Field 4
  Until: 22:00,                           !- Field 5
  1.0,                                    !- Field 6
  Until: 24:00,                           !- Field 7
  0.05,                                   !- Field 8
  For: Weekdays,                          !- Field 9
  Until: 06:00,                           !- Field 10
  0.0,                                    !- Field 11
  Until: 07:00,                           !- Field 12
  0.1,                                    !- Field 13
  Until: 08:00,                           !- Field 14
  0.2,                                    !- Field 15
  Until: 12:00,                           !- Field 16
  0.95,                                   !- Field 17
  Until: 13:00,                           !- Field 18
  0.5,                                    !- Field 19
  Until: 17:00,                           !- Field 20
  0.95,                                   !- Field 21
  Until: 18:00,                           !- Field 22
  0.3,                                    !- Field 23
  Until: 20:00,                           !- Field 24
  0.1,                                    !- Field 25
  Until: 24:00,                           !- Field 26
  0.05,                                   !- Field 27
  For: Saturday,                          !- Field 28
  Until: 06:00,                           !- Field 29
  0.0,                                    !- Field 30
  Until: 08:00,                           !- Field 31
  0.1,                                    !- Field 32
  Until: 12:00,                           !- Field 33
  0.3,                                    !- Field 34
  Until: 17:00,                           !- Field 35
  0.1,                                    !- Field 36
  Until: 24:00,                           !- Field 37
  0.0,                                    !- Field 38
  For: AllOtherDays,                      !- Field 39
  Until: 24:00,                           !- Field 40
  0.0;                                    !- Field 41

OS:Schedule:Compact,
  {03932b8c-d516-43ca-bff9-108e64438072}, !- Handle
  ACTIVITY_SCH,                           !- Name
  {45ec307f-cd04-43cf-aeb7-c314c89f2125}, !- Schedule Type Limits Name
  Through: 12/31,                         !- Field 1
  For: AllDays,                           !- Field 2
  Until: 24:00,                           !- Field 3
  120;                                    !- Field 4

OS:ScheduleTypeLimits,
  {7ba51983-0cfc-4851-a5c3-71a4d7fc15c9}, !- Handle
  {df085d9b-bd56-4d79-9db5-51838c9114b8}; !- Name

OS:ScheduleTypeLimits,
  {45ec307f-cd04-43cf-aeb7-c314c89f2125}, !- Handle
  ActivityLevel,                          !- Name
  0,                                      !- Lower Limit Value {BasedOnField A4}
  ,                                       !- Upper Limit Value {BasedOnField A4}
  Continuous,                             !- Numeric Type
  ActivityLevel;                          !- Unit Type

OS:Schedule:Compact,
  {75b9026a-c632-4ad9-987f-ffb88a986c18}, !- Handle
  WORK_EFF_SCH,                           !- Name
  {53cbe3c5-a44c-47a7-88d6-f3684cca4994}, !- Schedule Type Limits Name
  Through: 12/31,                         !- Field 1
  For: AllDays,                           !- Field 2
  Until: 24:00,                           !- Field 3
  0.0;                                    !- Field 4

OS:Surface,
  {6d853380-9d8a-45b4-aa18-8d535fa897c8}, !- Handle
  Attic_soffit_west,                      !- Name
  Floor,                                  !- Surface Type
  {d24ba2f5-8841-44fc-99aa-e07f4f083712}, !- Construction Name
  {52f8d981-3c22-4e1d-91f0-7b10ccd498f2}, !- Space Name
  Outdoors,                               !- Outside Boundary Condition
  ,                                       !- Outside Boundary Condition Object
  SunExposed,                             !- Sun Exposure
  WindExposed,                            !- Wind Exposure
  ,                                       !- View Factor to Ground
  ,                                       !- Number of Vertices
  -0.6, 19.06, 3.05,                      !- X,Y,Z Vertex 1 {m}
  0, 18.46, 3.05,                         !- X,Y,Z Vertex 2 {m}
  0, 0, 3.05,                             !- X,Y,Z Vertex 3 {m}
  -0.6, -0.6, 3.05;                       !- X,Y,Z Vertex 4 {m}

OS:Construction,
  {d24ba2f5-8841-44fc-99aa-e07f4f083712}, !- Handle
  Attic Non-res Floor,                    !- Name
  ,                                       !- Surface Rendering Name
  {289146be-09cc-44a3-951f-a5238c65a8e9}, !- Layer 1
  {42b25bcc-5ea7-45d4-8607-a7e2cd711c3e}, !- Layer 2
  {289146be-09cc-44a3-951f-a5238c65a8e9}; !- Layer 3

OS:Material,
  {42b25bcc-5ea7-45d4-8607-a7e2cd711c3e}, !- Handle
  AtticFloor NonRes Insulation,           !- Name
  MediumRough,                            !- Roughness
  0.236804989096202,                      !- Thickness {m}
  0.049,                                  !- Conductivity {W/m-K}
  265,                                    !- Density {kg/m3}
  836.8,                                  !- Specific Heat {J/kg-K}
  0.9,                                    !- Thermal Absorptance
  0.7,                                    !- Solar Absorptance
  0.7;                                    !- Visible Absorptance

OS:Space,
  {52f8d981-3c22-4e1d-91f0-7b10ccd498f2}, !- Handle
  Attic,                                  !- Name
  {5506c757-7957-4c2f-b9e9-45c1f88d8f87}, !- Space Type Name
  ,                                       !- Default Construction Set Name
  ,                                       !- Default Schedule Set Name
  0,                                      !- Direction of Relative North {deg}
  0,                                      !- X Origin {m}
  0,                                      !- Y Origin {m}
  0,                                      !- Z Origin {m}
  {7d3864ac-392e-49c9-bc7a-d1d994a4c90b}, !- Building Story Name
  ,                                       !- Thermal Zone Name
  No;                                     !- Part of Total Floor Area

OS:Surface,
  {f8c1d9b3-5943-41cb-bdd9-7d4c69837990}, !- Handle
  Perimeter_ZN_2_ceiling,                 !- Name
  RoofCeiling,                            !- Surface Type
  {d24ba2f5-8841-44fc-99aa-e07f4f083712}, !- Construction Name
  {20e9abac-af10-4b16-9697-491308099626}, !- Space Name
  Surface,                                !- Outside Boundary Condition
  {9693934b-1e22-49bd-af3a-4aa7f5f3375c}, !- Outside Boundary Condition Object
  NoSun,                                  !- Sun Exposure
  NoWind,                                 !- Wind Exposure
  ,                                       !- View Factor to Ground
  ,                                       !- Number of Vertices
  27.69, 0, 3.05,                         !- X,Y,Z Vertex 1 {m}
  27.69, 18.46, 3.05,                     !- X,Y,Z Vertex 2 {m}
  22.69, 13.46, 3.05,                     !- X,Y,Z Vertex 3 {m}
  22.69, 5, 3.05;                         !- X,Y,Z Vertex 4 {m}

OS:Construction,
  {495606c2-084e-4ccb-b9cb-dbce9140e437}, !- Handle
  Attic Non-res Roof,                     !- Name
  ,                                       !- Surface Rendering Name
  {47b73845-8d81-4d5b-9c49-d8e9499a165e}, !- Layer 1
  {bd3be008-a225-4752-9061-eaea2ebdcc5b}; !- Layer 2

OS:Material,
  {47b73845-8d81-4d5b-9c49-d8e9499a165e}, !- Handle
  Roof Membrane,                          !- Name
  VeryRough,                              !- Roughness
  0.0095,                                 !- Thickness {m}
  0.16,                                   !- Conductivity {W/m-K}
  1121.29,                                !- Density {kg/m3}
  1460,                                   !- Specific Heat {J/kg-K}
  0.9,                                    !- Thermal Absorptance
  0.7,                                    !- Solar Absorptance
  0.7;                                    !- Visible Absorptance

OS:Material,
  {bd3be008-a225-4752-9061-eaea2ebdcc5b}, !- Handle
  Metal Decking,                          !- Name
  MediumSmooth,                           !- Roughness
  0.0015,                                 !- Thickness {m}
  45.006,                                 !- Conductivity {W/m-K}
  7680,                                   !- Density {kg/m3}
  418.4,                                  !- Specific Heat {J/kg-K}
  0.9,                                    !- Thermal Absorptance
  0.7,                                    !- Solar Absorptance
  0.3;                                    !- Visible Absorptance

OS:DesignSpecification:OutdoorAir,
  {a0f35bad-3eb9-4985-905d-e673fb779155}, !- Handle
  SZ DSOA Perimeter_ZN_2,                 !- Name
  ,                                       !- Outdoor Air Method
  0.01,                                   !- Outdoor Air Flow per Person {m3/s-person}
  ,                                       !- Outdoor Air Flow per Floor Area {m3/s-m2}
  ,                                       !- Outdoor Air Flow Rate {m3/s}
  ,                                       !- Outdoor Air Flow Air Changes per Hour {1/hr}
  ;                                       !- Outdoor Air Flow Rate Fraction Schedule Name

OS:ScheduleTypeLimits,
  {69319cd8-77ed-463d-9fc6-51745442ec80}, !- Handle
  On/Off,                                 !- Name
  0,                                      !- Lower Limit Value {BasedOnField A4}
  1,                                      !- Upper Limit Value {BasedOnField A4}
  DISCRETE,                               !- Numeric Type
  Availability;                           !- Unit Type

OS:Building,
  {7fd83f21-a832-440d-8c8c-422b9ba3839d}, !- Handle
  SmallOffice,                            !- Name
  ,                                       !- Building Sector Type
  0,                                      !- North Axis {deg}