
OS:Version,
  {e372d1a0-573a-4ba9-96f5-16ada6701697}, !- Handle
  1.8.5;                                  !- Version Identifier

OS:Site,
  {234c06ed-bac4-4a57-af86-0c0124722c32}, !- Handle
  USA IL-CHICAGO-OHARE,                   !- Name
  41.77,                                  !- Latitude {deg}
  -87.75,                                 !- Longitude {deg}
  -6,                                     !- Time Zone {hr}
  190,                                    !- Elevation {m}
  City;                                   !- Terrain

OS:SimulationControl,
  {dac0df18-f077-4300-bb1b-659fc0dee61e}, !- Handle
  Yes,                                    !- Do Zone Sizing Calculation
  Yes,                                    !- Do System Sizing Calculation
  Yes,                                    !- Do Plant Sizing Calculation
  No,                                     !- Run Simulation for Sizing Periods
  Yes,                                    !- Run Simulation for Weather File Run Periods
  0.04,                                   !- Loads Convergence Tolerance Value
  0.2,                                    !- Temperature Convergence Tolerance Value {deltaC}
  FullInteriorAndExterior,                !- Solar Distribution
  25,                                     !- Maximum Number of Warmup Days
  6;                                      !- Minimum Number of Warmup Days

OS:Surface,
  {6c490a5b-0381-44aa-b52d-0d7c61c71b5e}, !- Handle
  Core_Retail_Wall_West_1,                !- Name
  Wall,                                   !- Surface Type
  {bed1f7a5-5f32-4d6e-a0f3-2c5214ab07a3}, !- Construction Name
  {8847c7ab-a26b-4c75-9521-edfebb4c370b}, !- Space Name
  Surface,                                !- Outside Boundary Condition
  {3f7fe78d-3f24-4762-86cb-9f0fcb26cbe5}, !- Outside Boundary Condition Object
  NoSun,                                  !- Sun Exposure
  NoWind,                                 !- Wind Exposure
  ,                                       !- View Factor to Ground
  ,                                       !- Number of Vertices
  25.135, 0, 6.096,                       !- X,Y,Z Vertex 1 {m}
  25.135, 0, 0,                           !- X,Y,Z Vertex 2 {m}
  25.135, -3, 0,                          !- X,Y,Z Vertex 3 {m}
  25.135, -3, 6.096;                      !- X,Y,Z Vertex 4 {m}

OS:Construction,
  {bed1f7a5-5f32-4d6e-a0f3-2c5214ab07a3}, !- Handle
  int-walls,                              !- Name
  ,                                       !- Surface Rendering Name
  {bcf052ed-fa2f-4fdc-8461-bec5f0f99dfd}, !- Layer 1
  {bcf052ed-fa2f-4fdc-8461-bec5f0f99dfd}; !- Layer 2

OS:Material,
  {bcf052ed-fa2f-4fdc-8461-bec5f0f99dfd}, !- Handle
  1/2IN Gypsum,                           !- Name
  Smooth,                                 !- Roughness
  0.0127,                                 !- Thickness {m}
  0.16,                                   !- Conductivity {W/m-K}
  784.9,                                  !- Density {kg/m3}
  830,                                    !- Specific Heat {J/kg-K}
  0.9,                                    !- Thermal Absorptance
  0.92,                                   !- Solar Absorptance
  0.92;                                   !- Visible Absorptance

OS:Space,
  {8847c7ab-a26b-4c75-9521-edfebb4c370b}, !- Handle
  Core_Retail,                            !- Name
  {27c581f5-2f4c-420c-801b-f4bf42df0682}, !- Space Type Name
  ,                                       !- Default Construction Set Name
  ,                                       !- Default Schedule Set Name
  0,                                      !- Direction of Relative North {deg}
  0,                                      !- X Origin {m}
  6,                                      !- Y Origin {m}
  0,                                      !- Z Origin {m}
  {3d189e4c-f16c-4257-8ae8-d80b7d2c04ac}, !- Building Story Name
  {75aee07c-e048-4255-a2d7-539d1f1af0b3}, !- Thermal Zone Name
  Yes,                                    !- Part of Total Floor Area
  {dae4e751-b127-4917-b872-c0018e9c8a6d}; !- Design Specification Outdoor Air Object Name

OS:Schedule:Compact,
  {32df54af-c357-49fb-ac02-4ddb17c3671f}, !- Handle
  HTGSETP_SCH,                            !- Name
  {1a92c5e0-2992-4d30-ade0-27e6aaa77bb3}, !- Schedule Type Limits Name
  Through: 12/31,                         !- Field 1
  For: Weekdays,                          !- Field 2
  Until: 06:00,                           !- Field 3
  15.6,                                   !- Field 4
  Until: 21:00,                           !- Field 5
  21.0,                                   !- Field 6
  Until: 24:00,                           !- Field 7
  15.6,                                   !- Field 8
  For SummerDesignDay,                    !- Field 9
  Until: 24:00,                           !- Field 10
  15.6,                                   !- Field 11
  For WinterDesignDay,                    !- Field 12
  Until: 24:00,                           !- Field 13
  21.0,                                   !- Field 14
  For: Saturday,                          !- Field 15
  Until: 06:00,                           !- Field 16
  15.6,                                   !- Field 17
  Until: 22:00,                           !- Field 18
  21.0,                                   !- Field 19
  Until: 24:00,                           !- Field 20
  15.6,                                   !- Field 21
  For: Sunday Holidays AllOtherDays,      !- Field 22
  Until:  8:00,                           !- Field 23
  15.6,                                   !- Field 24
  Until: 19:00,                           !- Field 25
  21.,                                    !- Field 26
  Until: 24:00,                           !- Field 27
  15.6;                                   !- Field 28

OS:ScheduleTypeLimits,
  {1a92c5e0-2992-4d30-ade0-27e6aaa77bb3}, !- Handle
  Temperature,                            !- Name
  -60,                                    !- Lower Limit Value {BasedOnField A4}
  200,                                    !- Upper Limit Value {BasedOnField A4}
  CONTINUOUS,                             !- Numeric Type
  Temperature;                            !- Unit Type

OS:Schedule:Compact,
  {059c21e8-6c52-433c-8718-fedee4c61c25}, !- Handle
  CLGSETP_SCH,                            !- Name
  {1a92c5e0-2992-4d30-ade0-27e6aaa77bb3}, !- Schedule Type Limits Name
  Through: 12/31,                         !- Field 1
  For: Weekdays SummerDesignDay,          !- Field 2
  Until: 06:00,                           !- Field 3
  30.0,                                   !- Field 4
  Until: 21:00,                           !- Field 5
  24.0,                                   !- Field 6
  Until: 24:00,                           !- Field 7
  30.0,                                   !- Field 8
  For: Saturday,                          !- Field 9
  Until: 06:00,                           !- Field 10
  30.0,                                   !- Field 11
  Until: 22:00,                           !- Field 12
  24.0,                                   !- Field 13
  Until: 24:00,                           !- Field 14
  30.0,                                   !- Field 15
  For WinterDesignDay,                    !- Field 16
  Until: 24:00,                           !- Field 17
  30.0,                                   !- Field 18
  For: Sunday Holidays AllOtherDays,      !- Field 19
  Until: 8:00,                            !- Field 20
  30.0,                                   !- Field 21
  Until: 19:00,                           !- Field 22
  24.0,                                   !- Field 23
  Until: 24:00,                           !- Field 24
  30.0;                                   !- Field 25

OS:Surface,
  {5ad3ed11-ef7a-4452-b7c8-6ee8a4cc93e4}, !- Handle
  Front_Retail_Roof,                      !- Name
  RoofCeiling,                            !- Surface Type
  {a1649638-e785-4f1a-9da6-a910062333d9}, !- Construction Name
  {64b831d5-6a4f-4374-8feb-11ede8c2ea0c}, !- Space Name
  Outdoors,                               !- Outside Boundary Condition
  ,                                       !- Outside Boundary Condition Object
  SunExposed,                             !- Sun Exposure
  WindExposed,                            !- Wind Exposure
  ,                                       !- View Factor to Ground
  ,                                       !- Number of Vertices
  25.135, 0, 6.096,                       !- X,Y,Z Vertex 1 {m}
  25.135, 6, 6.096,                       !- X,Y,Z Vertex 2 {m}
  0, 6, 6.096,                            !- X,Y,Z Vertex 3 {m}
  0, 0, 6.096;                            !- X,Y,Z Vertex 4 {m}

OS:Construction,
  {a1649638-e785-4f1a-9da6-a910062333d9}, !- Handle
  IEAD Non-res Roof,                      !- Name
  ,                                       !- Surface Rendering Name
  {729a890b-16dc-44cc-8098-6f96791064fd}, !- Layer 1
  {5136037e-6872-4627-9688-67356fbe5872}, !- Layer 2
  {594a5df2-0171-4356-ba6d-cd9b150d3d99}; !- Layer 3

OS:Material,
  {729a890b-16dc-44cc-8098-6f96791064fd}, !- Handle
  Roof Membrane,                          !- Name
  VeryRough,                              !- Roughness
  0.0095,                                 !- Thickness {m}
  0.16,                                   !- Conductivity {W/m-K}
  1121.29,                                !- Density {kg/m3}
  1460,                                   !- Specific Heat {J/kg-K}
  0.9,                                    !- Thermal Absorptance
  0.7,                                    !- Solar Absorptance
  0.7;                                    !- Visible Absorptance

OS:Material,
  {5136037e-6872-4627-9688-67356fbe5872}, !- Handle
  IEAD NonRes Roof Insulation,            !- Name
  MediumRough,                            !- Roughness
  0.127338688569477,                      !- Thickness {m}
  0.049,                                  !- Conductivity {W/m-K}
  265,                                    !- Density {kg/m3}
  836.8,                                  !- Specific Heat {J/kg-K}
  0.9,                                    !- Thermal Absorptance
  0.7,                                    !- Solar Absorptance
  0.7;                                    !- Visible Absorptance

OS:Material,
  {594a5df2-0171-4356-ba6d-cd9b150d3d99}, !- Handle
  Metal Decking,                          !- Name
  MediumSmooth,                           !- Roughness
  0.0015,                                 !- Thickness {m}
  45.006,                                 !- Conductivity {W/m-K}
  7680,                                   !- Density {kg/m3}
  418.4,                                  !- Specific Heat {J/kg-K}
  0.9,                                    !- Thermal Absorptance
  0.7,                                    !- Solar Absorptance
  0.3;                                    !- Visible Absorptance

OS:Space,
  {64b831d5-6a4f-4374-8feb-11ede8c2ea0c}, !- Handle
  Front_Retail,                           !- Name
  {27c581f5-2f4c-420c-801b-f4bf42df0682}, !- Space Type Name
  ,                                       !- Default Construction Set Name
  ,                                       !- Default Schedule Set Name
  0,                                      !- Direction of Relative North {deg}
  29.135,                                 !- X Origin {m}
  0,                                      !- Y Origin {m}
  0,                                      !- Z Origin {m}
  {3d189e4c-f16c-4257-8ae8-d80b7d2c04ac}, !- Building Story Name
  {daaf5005-e030-4ade-9265-fb19342d2287}, !- Thermal Zone Name
  Yes,                                    !- Part of Total Floor Area
  {8433f0b1-faf5-4eae-b1e6-1a3bb3e68b0d}; !- Design Specification Outdoor Air Object Name

OS:Surface,
  {e4a9f6c3-abe3-4942-a490-1838e5ff3d78}, !- Handle
  Front_Retail_Wall_West_2,               !- Name
  Wall,                                   !- Surface Type
  {bed1f7a5-5f32-4d6e-a0f3-2c5214ab07a3}, !- Construction Name
  {64b831d5-6a4f-4374-8feb-11ede8c2ea0c}, !- Space Name
  Surface,                                !- Outside Boundary Condition
  {1841b4c2-7f0c-4d23-832c-6d05021f6735}, !- Outside Boundary Condition Object
  NoSun,                                  !- Sun Exposure
  NoWind,                                 !- Wind Exposure
  ,                                       !- View Factor to Ground
  ,                                       !- Number of Vertices
  0, 6, 6.096,                            !- X,Y,Z Vertex 1 {m}
  0, 6, 0,                                !- X,Y,Z Vertex 2 {m}
  0, 3, 0,                                !- X,Y,Z Vertex 3 {m}
  0, 3, 6.096;                            !- X,Y,Z Vertex 4 {m}

OS:Curve:Biquadratic,
  {30993701-3c17-45de-8c1a-9e9ba102c03d}, !- Handle
  Cool-EIR-fT,                            !- Name
  0.28687133,                             !- Coefficient1 Constant
  0.023902164,                            !- Coefficient2 x
  -0.000810648,                           !- Coefficient3 x**2
  0.013458546,                            !- Coefficient4 y
  0.0003389364,                           !- Coefficient5 y**2
  -0.0004870044,                          !- Coefficient6 x*y
  -100,                                   !- Minimum Value of x {BasedOnField A2}
  100,                                    !- Maximum Value of x {BasedOnField A2}
  -100,                                   !- Minimum Value of y {BasedOnField A3}
  100;                                    !- Maximum Value of y {BasedOnField A3}

OS:Surface,
  {16261bd6-347f-4483-990d-4ab143499469}, !- Handle
  Core_Retail_Wall_South_1,               !- Name
  Wall,                                   !- Surface Type
  {bed1f7a5-5f32-4d6e-a0f3-2c5214ab07a3}, !- Construction Name
  {8847c7ab-a26b-4c75-9521-edfebb4c370b}, !- Space Name
  Surface,                                !- Outside Boundary Condition
  {05a281c3-6447-4485-8e57-8205a483a61b}, !- Outside Boundary Condition Object
  NoSun,                                  !- Sun Exposure
  NoWind,                                 !- Wind Exposure
  ,                                       !- View Factor to Ground
  ,                                       !- Number of Vertices
  0, 0, 6.096,                            !- X,Y,Z Vertex 1 {m}
  0, 0, 0,                                !- X,Y,Z Vertex 2 {m}
  25.135, 0, 0,                           !- X,Y,Z Vertex 3 {m}
  25.135, 0, 6.096;                       !- X,Y,Z Vertex 4 {m}

OS:Curve:Biquadratic,
  {c6d57214-c725-45b3-b089-63be224276cc}, !- Handle
  Measured_LowSpeedCoolCapLSFT,           !- Name
  0.4136,                                 !- Coefficient1 Constant
  0.03105,                                !- Coefficient2 x
  0,                                      !- Coefficient3 x**2
  0.006952,                               !- Coefficient4 y
  -0.0002128,                             !- Coefficient5 y**2
  0,                                      !- Coefficient6 x*y
  11.1,                                   !- Minimum Value of x {BasedOnField A2}
  29.4,                                   !- Maximum Value of x {BasedOnField A2}
  10,                                     !- Minimum Value of y {BasedOnField A3}
  50.3;                                   !- Maximum Value of y {BasedOnField A3}

OS:Meter,
  {20b01e24-ea56-4af1-880c-17123e4cc674}, !- Handle
  InteriorEquipment:Gas,                  !- Name
  hourly,                                 !- Reporting Frequency
  False,                                  !- Meter File Only
  False;                                  !- Cumulative

OS:Surface,
  {6ad3a3ee-7680-4652-b320-4308edc0b658}, !- Handle
  Front_Entry_Wall_South,                 !- Name
  Wall,                                   !- Surface Type
  {bdcc76ea-f6dd-4e4a-882e-93157b15c8fd}, !- Construction Name
  {b33e2fbb-6a40-4d91-9192-6d256670cf03}, !- Space Name
  Outdoors,                               !- Outside Boundary Condition
  ,                                       !- Outside Boundary Condition Object
  SunExposed,                             !- Sun Exposure
  WindExposed,                            !- Wind Exposure
  ,                                       !- View Factor to Ground
  ,                                       !- Number of Vertices
  0, 0, 6.096,                            !- X,Y,Z Vertex 1 {m}
  0, 0, 0,                                !- X,Y,Z Vertex 2 {m}
  4, 0, 0,                                !- X,Y,Z Vertex 3 {m}
  4, 0, 6.096;                            !- X,Y,Z Vertex 4 {m}

OS:Construction,
  {bdcc76ea-f6dd-4e4a-882e-93157b15c8fd}, !- Handle
  Mass Non-res Ext Wall,                  !- Name
  ,                                       !- Surface Rendering Name
  {77354eaa-a056-45e4-b3dc-e0ec9a4397e1}, !- Layer 1
  {36788fa2-d058-41e0-ab75-e40e02197427}, !- Layer 2
  {b3206f53-dac6-4c49-9214-d8c7873a6464}, !- Layer 3
  {bcf052ed-fa2f-4fdc-8461-bec5f0f99dfd}; !- Layer 4

OS:Material,
  {77354eaa-a056-45e4-b3dc-e0ec9a4397e1}, !- Handle
  1IN Stucco,                             !- Name
  Smooth,                                 !- Roughness
  0.0253,                                 !- Thickness {m}
  0.6918,                                 !- Conductivity {W/m-K}
  1858,                                   !- Density {kg/m3}
  837,                                    !- Specific Heat {J/kg-K}
  0.9,                                    !- Thermal Absorptance
  0.92,                                   !- Solar Absorptance
  0.92;                                   !- Visible Absorptance

OS:Material,
  {36788fa2-d058-41e0-ab75-e40e02197427}, !- Handle
  8IN CONCRETE HW,                        !- Name
  Rough,                                  !- Roughness
  0.2032,                                 !- Thickness {m}
  1.311,                                  !- Conductivity {W/m-K}
  2240,                                   !- Density {kg/m3}
  836.8,                                  !- Specific Heat {J/kg-K}
  0.9,                                    !- Thermal Absorptance
  0.7,                                    !- Solar Absorptance
  0.7;                                    !- Visible Absorptance

OS:Material,
  {b3206f53-dac6-4c49-9214-d8c7873a6464}, !- Handle
  Mass NonRes Wall Insulation,            !- Name
  MediumRough,                            !- Roughness
  0.0495494599433393,                     !- Thickness {m}
  0.049,                                  !- Conductivity {W/m-K}
  265,                                    !- Density {kg/m3}
  836.8,                                  !- Specific Heat {J/kg-K}
  0.9,                                    !- Thermal Absorptance
  0.7,                                    !- Solar Absorptance
  0.7;                                    !- Visible Absorptance

OS:Space,
  {b33e2fbb-6a40-4d91-9192-6d256670cf03}, !- Handle
  Front_Entry,                            !- Name
  {712ce1e6-27a5-41f8-b916-562aecb55fa6}, !- Space Type Name
  ,                                       !- Default Construction Set Name
  ,                                       !- Default Schedule Set Name
  0,                                      !- Direction of Relative North {deg}
  25.135,                                 !- X Origin {m}
  0,                                      !- Y Origin {m}
  0,                                      !- Z Origin {m}
  {3d189e4c-f16c-4257-8ae8-d80b7d2c04ac}, !- Building Story Name
  {daaf5005-e030-4ade-9265-fb19342d2287}, !- Thermal Zone Name
  Yes,                                    !- Part of Total Floor Area
  {b95e6c04-1561-46c2-b329-3927796207f2}; !- Design Specification Outdoor Air Object Name

OS:Schedule:Compact,
  {0db9cbd3-7e7d-4294-8d0d-b19c92d80f26}, !- Handle
  FRONT_ENTRY_COOLING,                    !- Name
  {1a92c5e0-2992-4d30-ade0-27e6aaa77bb3}, !- Schedule Type Limits Name
  Through: 12/31,                         !- Field 1
  For: AllDays,                           !- Field 2
  Until: 24:00,                           !- Field 3
  90;                                     !- Field 4

OS:Curve:Quadratic,
  {629bae1b-fbdb-4af9-aeef-a0fb60bf3cc3}, !- Handle
  No_PLR_Degredation,                     !- Name
  1,                                      !- Coefficient1 Constant
  0,                                      !- Coefficient2 x
  0,                                      !- Coefficient3 x**2
  0,                                      !- Minimum Value of x {BasedOnField A2}
  1;                                      !- Maximum Value of x {BasedOnField A2}

OS:Lights:Definition,
  {426a325c-1e07-4e4b-afd7-9e4254a1fd8e}, !- Handle
  Core_Retail_Lights Definition,          !- Name
  Watts/Area,                             !- Design Level Calculation Method
  ,                                       !- Lighting Level {W}
  18.29,                                  !- Watts per Space Floor Area {W/m2}
  ,                                       !- Watts per Person {W/person}
  0.7,                                    !- Fraction Radiant
  0.2,                                    !- Fraction Visible
  0,                                      !- Return Air Fraction
  No;                                     !- Return Air Fraction Calculated from Plenum Temperature

OS:Lights,
  {f1dde931-8675-49b0-86d0-78f4ea3f19a0}, !- Handle
  Core_Retail_Lights,                     !- Name
  {426a325c-1e07-4e4b-afd7-9e4254a1fd8e}, !- Lights Definition Name
  {8847c7ab-a26b-4c75-9521-edfebb4c370b}, !- Space or SpaceType Name
  {137cd16f-422c-4a09-bd5d-561cfb4f1239}, !- Schedule Name
  1,                                      !- Fraction Replaceable
  ,                                       !- Multiplier
  General;                                !- End-Use Subcategory

OS:Schedule:Compact,
  {137cd16f-422c-4a09-bd5d-561cfb4f1239}, !- Handle
  BLDG_LIGHT_SCH,                         !- Name
  {6d80630e-aa30-4720-9ad0-180382c94e44}, !- Schedule Type Limits Name
  Through: 12/31,                         !- Field 1
  For: Weekdays,                          !- Field 2
  Until: 07:00,                           !- Field 3
  0.05,                                   !- Field 4
  Until: 08:00,                           !- Field 5
  0.2,                                    !- Field 6
  Until: 09:00,                           !- Field 7
  0.5,                                    !- Field 8
  Until: 18:00,                           !- Field 9
  0.9,                                    !- Field 10
  Until: 20:00,                           !- Field 11
  0.6,                                    !- Field 12
  Until: 21:00,                           !- Field 13
  0.5,                                    !- Field 14
  Until: 22:00,                           !- Field 15
  0.2,                                    !- Field 16
  Until: 24:00,                           !- Field 17
  0.05,                                   !- Field 18
  For: Saturday,                          !- Field 19
  Until: 07:00,                           !- Field 20
  0.05,                                   !- Field 21
  Until: 08:00,                           !- Field 22
  0.1,                                    !- Field 23
  Until: 09:00,                           !- Field 24
  0.3,                                    !- Field 25
  Until: 10:00,                           !- Field 26
  0.6,                                    !- Field 27
  Until: 18:00,                           !- Field 28
  0.9,                                    !- Field 29
  Until: 19:00,                           !- Field 30
  0.5,                                    !- Field 31
  Until: 21:00,                           !- Field 32
  0.3,                                    !- Field 33
  Until: 22:00,                           !- Field 34
  0.1,                                    !- Field 35
  Until: 24:00,                           !- Field 36
  0.05,                                   !- Field 37
  For: SummerDesignDay,                   !- Field 38
  Until: 24:00,                           !- Field 39
  1.0,                                    !- Field 40
  For: WinterDesignDay,                   !- Field 41
  Until: 24:00,                           !- Field 42
  0.0,                                    !- Field 43
  For: AllOtherDays,                      !- Field 44
  Until: 08:00,                           !- Field 45
  0.05,                                   !- Field 46
  Until: 10:00,                           !- Field 47
  0.1,                                    !- Field 48
  Until: 12:00,                           !- Field 49
  0.4,                                    !- Field 50
  Until: 17:00,                           !- Field 51
  0.6,                                    !- Field 52
  Until: 18:00,                           !- Field 53
  0.4,                                    !- Field 54
  Until: 19:00,                           !- Field 55
  0.2,                                    !- Field 56
  Until: 24:00,                           !- Field 57
  0.05;                                   !- Field 58

OS:ScheduleTypeLimits,
  {6d80630e-aa30-4720-9ad0-180382c94e44}, !- Handle
  Fraction,                               !- Name
  0,                                      !- Lower Limit Value {BasedOnField A4}
  1,                                      !- Upper Limit Value {BasedOnField A4}
  CONTINUOUS;                             !- Numeric Type

OS:Construction,
  {482130c2-a42f-42b5-9667-e91d4cde0711}, !- Handle
  InteriorFurnishings,                    !- Name
  ,                                       !- Surface Rendering Name
  {a8f1682e-8bba-4896-83a4-f67c8f384926}; !- Layer 1

OS:Material,
  {a8f1682e-8bba-4896-83a4-f67c8f384926}, !- Handle
  Std Wood 6inch,                         !- Name
  MediumSmooth,                           !- Roughness
  0.15,                                   !- Thickness {m}
  0.12,                                   !- Conductivity {W/m-K}
  540,                                    !- Density {kg/m3}
  1210,                                   !- Specific Heat {J/kg-K}
  0.9,                                    !- Thermal Absorptance
  0.7,                                    !- Solar Absorptance
  0.7;                                    !- Visible Absorptance

OS:Schedule:Compact,
  {09994c78-8485-4b7c-997e-dbf4ad7d92e8}, !- Handle
  ALWAYS_ON,                              !- Name
  {d32c592c-7247-4c62-8e2e-bf9113105785}, !- Schedule Type Limits Name
  Through: 12/31,                         !- Field 1
  For: AllDays,                           !- Field 2
  Until: 24:00,                           !- Field 3
  1;                                      !- Field 4

OS:ScheduleTypeLimits,
  {d32c592c-7247-4c62-8e2e-bf9113105785}, !- Handle
  On/Off,                                 !- Name
  0,                                      !- Lower Limit Value {BasedOnField A4}
  1,                                      !- Upper Limit Value {BasedOnField A4}
  DISCRETE,                               !- Numeric Type
  Availability;                           !- Unit Type

OS:Sizing:Parameters,
  {06e7dc36-4f6d-47f9-96de-ea123e53abb6}, !- Handle
  1.2,                                    !- Heating Sizing Factor
  1.2,                                    !- Cooling Sizing Factor
  6;                                      !- Timesteps in Averaging Window

OS:Material,
  {6126bb0f-efcd-4e55-8dc0-5a46f5f04274}, !- Handle
  Metal Roofing,                          !- Name
  MediumSmooth,                           !- Roughness
  0.0015,                                 !- Thickness {m}
  45.006,                                 !- Conductivity {W/m-K}
  7680,                                   !- Density {kg/m3}
  418.4,                                  !- Specific Heat {J/kg-K}
  0.9,                                    !- Thermal Absorptance
  0.7,                                    !- Solar Absorptance
  0.3;                                    !- Visible Absorptance

OS:SubSurface,
  {bd23f751-3dd8-4b83-a55a-fb8798c70855}, !- Handle
  Front_Entry_Wall_South_Glazing,         !- Name
  FixedWindow,                            !- Sub Surface Type
  {f1d1546f-ac79-42e5-b076-bcc8487ba86b}, !- Construction Name
  {6ad3a3ee-7680-4652-b320-4308edc0b658}, !- Surface Name
  ,                                       !- Outside Boundary Condition Object
  ,                                       !- View Factor to Ground
  ,                                       !- Shading Control Name
  ,                                       !- Frame and Divider Name
  1,                                      !- Multiplier
  ,                                       !- Number of Vertices
  0.5, 0, 2.66,                           !- X,Y,Z Vertex 1 {m}
  0.5, 0, 0.05,                           !- X,Y,Z Vertex 2 {m}
  3.5, 0, 0.05,                           !- X,Y,Z Vertex 3 {m}
  3.5, 0, 2.66;                           !- X,Y,Z Vertex 4 {m}

OS:Construction,
  {f1d1546f-ac79-42e5-b076-bcc8487ba86b}, !- Handle
  Window Non-res Fixed,                   !- Name
  ,                                       !- Surface Rendering Name
  {f244d853-a919-4fda-af99-c3012753e5a4}; !- Layer 1

OS:WindowMaterial:SimpleGlazingSystem,
  {f244d853-a919-4fda-af99-c3012753e5a4}, !- Handle
  NonRes Fixed Assembly Window,           !- Name
  3.23646,                                !- U-Factor {W/m2-K}
  0.39;                                   !- Solar Heat Gain Coefficient

OS:Curve:Biquadratic,
  {1977bcfd-b365-4061-af54-abe25a014e40}, !- Handle
  Cool-Cap-fT,                            !- Name
  0.9712123,                              !- Coefficient1 Constant
  -0.015275502,                           !- Coefficient2 x
  0.0014434524,                           !- Coefficient3 x**2
  -0.00039321,                            !- Coefficient4 y
  -6.8364e-006,                           !- Coefficient5 y**2
  -0.0002905956,                          !- Coefficient6 x*y