
OS:Version,
  {0436f3bf-9a38-487f-aa5e-247f39e5dcff}, !- Handle
  1.8.5;                                  !- Version Identifier

OS:Site,
  {6e89f010-901b-44ca-a87f-bad71576c614}, !- Handle
  USA IL-CHICAGO-OHARE,                   !- Name
  41.77,                                  !- Latitude {deg}
  -87.75,                                 !- Longitude {deg}
  -6,                                     !- Time Zone {hr}
  190,                                    !- Elevation {m}
  City;                                   !- Terrain

OS:SimulationControl,
  {30c9a8f0-424e-421c-a466-490e793458ea}, !- Handle
  Yes,                                    !- Do Zone Sizing Calculation
  Yes,                                    !- Do System Sizing Calculation
  Yes,                                    !- Do Plant Sizing Calculation
  No,                                     !- Run Simulation for Sizing Periods
  Yes,                                    !- Run Simulation for Weather File Run Periods
  0.04,                                   !- Loads Convergence Tolerance Value
  0.2,                                    !- Temperature Convergence Tolerance Value {deltaC}
  FullInteriorAndExterior,                !- Solar Distribution
  25,                                     !- Maximum Number of Warmup Days
  6;                                      !- Minimum Number of Warmup Days

OS:People:Definition,
  {67788a18-50d0-4322-b091-b908828961ee}, !- Handle
  Point_Of_Sale People Definition,        !- Name
  Area/Person,                            !- Number of People Calculation Method
  ,                                       !- Number of People {people}
  ,                                       !- People per Space Floor Area {person/m2}
  6.19,                                   !- Space Floor Area per Person {m2/person}
  0.3,                                    !- Fraction Radiant
  ,                                       !- Sensible Heat Fraction
  ,                                       !- Carbon Dioxide Generation Rate {m3/s-W}
  No,                                     !- Enable ASHRAE 55 Comfort Warnings
  ZoneAveraged;                           !- Mean Radiant Temperature Calculation Type

OS:People,
  {1d5e7101-e2d5-42eb-8cf8-dfcd5c579c93}, !- Handle
  Point_Of_Sale People,                   !- Name
  {67788a18-50d0-4322-b091-b908828961ee}, !- People Definition Name
  {9a6c31a1-8265-4619-8012-aff482573345}, !- Space or SpaceType Name
  {28fb29fe-37e0-4f23-8c91-86e98390fb33}, !- Number of People Schedule Name
  {b4c8b427-6cac-4614-9950-ea76753006f4}, !- Activity Level Schedule Name
  ,                                       !- Surface Name/Angle Factor List Name
  {57a8c022-873f-4a87-9328-249a419172cd}; !- Work Efficiency Schedule Name

OS:Space,
  {9a6c31a1-8265-4619-8012-aff482573345}, !- Handle
  Point_Of_Sale,                          !- Name
  {af75b10e-b707-4999-bde5-afea44fae292}, !- Space Type Name
  ,                                       !- Default Construction Set Name
  ,                                       !- Default Schedule Set Name
  0,                                      !- Direction of Relative North {deg}
  0,                                      !- X Origin {m}
  0,                                      !- Y Origin {m}
  0,                                      !- Z Origin {m}
  {8d530c1e-e6bd-45a7-b539-afbdab660c5f}, !- Building Story Name
  {fa5a21b2-9e58-4957-aacc-808df4230621}, !- Thermal Zone Name
  Yes,                                    !- Part of Total Floor Area
  {617f8019-a4f5-4da0-b773-389ad8e5e29b}; !- Design Specification Outdoor Air Object Name

OS:ThermostatSetpoint:DualSetpoint,
  {98236b59-9bd5-4b8e-be92-419ffac0f8aa}, !- Handle
  {96d45c45-a7e5-421e-abef-a433de05a0c1}, !- Name
  {be142c7d-3e05-4d21-a21b-fe3ce17087ec}, !- Heating Setpoint Temperature Schedule Name
  {fc894f53-b12a-46f3-97e9-d19e940fc86f}; !- Cooling Setpoint Temperature Schedule Name

OS:Schedule:Compact,
  {be142c7d-3e05-4d21-a21b-fe3ce17087ec}, !- Handle
  HTGSETP_SCH,                            !- Name
  {289b6b60-031b-405a-9a5e-7fc88e755cd5}, !- Schedule Type Limits Name
  Through: 12/31,                         !- Field 1
  For: Weekdays,                          !- Field 2
  Until: 06:00,                           !- Field 3
  15.6,                                   !- Field 4
  Until: 21:00,                           !- Field 5
  21.0,                                   !- Field 6
  Until: 24:00,                           !- Field 7
  15.6,                                   !- Field 8
  For SummerDesignDay,                    !- Field 9
  Until: 24:00,                           !- Field 10
  15.6,                                   !- Field 11
  For WinterDesignDay,                    !- Field 12
  Until: 24:00,                           !- Field 13
  21.0,                                   !- Field 14
  For: Saturday,                          !- Field 15
  Until: 06:00,                           !- Field 16
  15.6,                                   !- Field 17
  Until: 22:00,                           !- Field 18
  21.0,                                   !- Field 19
  Until: 24:00,                           !- Field 20
  15.6,                                   !- Field 21
  For: Sunday Holidays AllOtherDays,      !- Field 22
  Until:  8:00,                           !- Field 23
  15.6,                                   !- Field 24
  Until: 19:00,                           !- Field 25
  21.,                                    !- Field 26
  Until: 24:00,                           !- Field 27
  15.6;                                   !- Field 28

OS:ScheduleTypeLimits,
  {289b6b60-031b-405a-9a5e-7fc88e755cd5}, !- Handle
  Temperature,                            !- Name
  -60,                                    !- Lower Limit Value {BasedOnField A4}
  200,                                    !- Upper Limit Value {BasedOnField A4}
  CONTINUOUS,                             !- Numeric Type
  Temperature;                            !- Unit Type

OS:Schedule:Compact,
  {fc894f53-b12a-46f3-97e9-d19e940fc86f}, !- Handle
  CLGSETP_SCH,                            !- Name
  {289b6b60-031b-405a-9a5e-7fc88e755cd5}, !- Schedule Type Limits Name
  Through: 12/31,                         !- Field 1
  For: Weekdays SummerDesignDay,          !- Field 2
  Until: 06:00,                           !- Field 3
  30.0,                                   !- Field 4
  Until: 21:00,                           !- Field 5
  24.0,                                   !- Field 6
  Until: 24:00,                           !- Field 7
  30.0,                                   !- Field 8
  For: Saturday,                          !- Field 9
  Until: 06:00,                           !- Field 10
  30.0,                                   !- Field 11
  Until: 22:00,                           !- Field 12
  24.0,                                   !- Field 13
  Until: 24:00,                           !- Field 14
  30.0,                                   !- Field 15
  For WinterDesignDay,                    !- Field 16
  Until: 24:00,                           !- Field 17
  30.0,                                   !- Field 18
  For: Sunday Holidays AllOtherDays,      !- Field 19
  Until: 8:00,                            !- Field 20
  30.0,                                   !- Field 21
  Until: 19:00,                           !- Field 22
  24.0,                                   !- Field 23
  Until: 24:00,                           !- Field 24
  30.0;                                   !- Field 25

OS:Schedule:Compact,
  {28fb29fe-37e0-4f23-8c91-86e98390fb33}, !- Handle
  BLDG_OCC_SCH,                           !- Name
  {0ba7cdf1-d12b-4514-a08f-7e45f2d2399b}, !- Schedule Type Limits Name
  Through: 12/31,                         !- Field 1
  For: Weekdays,                          !- Field 2
  Until: 07:00,                           !- Field 3
  0.0,                                    !- Field 4
  Until: 08:00,                           !- Field 5
  0.1,                                    !- Field 6
  Until: 09:00,                           !- Field 7
  0.2,                                    !- Field 8
  Until: 11:00,                           !- Field 9
  0.5,                                    !- Field 10
  Until: 15:00,                           !- Field 11
  0.7,                                    !- Field 12
  Until: 16:00,                           !- Field 13
  0.8,                                    !- Field 14
  Until: 17:00,                           !- Field 15
  0.7,                                    !- Field 16
  Until: 19:00,                           !- Field 17
  0.5,                                    !- Field 18
  Until: 21:00,                           !- Field 19
  0.3,                                    !- Field 20
  Until: 24:00,                           !- Field 21
  0.0,                                    !- Field 22
  For: SummerDesignDay WinterDesignDay,   !- Field 23
  Until: 24:00,                           !- Field 24
  1.0,                                    !- Field 25
  For: Saturday,                          !- Field 26
  Until: 07:00,                           !- Field 27
  0.0,                                    !- Field 28
  Until: 08:00,                           !- Field 29
  0.1,                                    !- Field 30
  Until: 09:00,                           !- Field 31
  0.2,                                    !- Field 32
  Until: 10:00,                           !- Field 33
  0.5,                                    !- Field 34
  Until: 11:00,                           !- Field 35
  0.6,                                    !- Field 36
  Until: 17:00,                           !- Field 37
  0.8,                                    !- Field 38
  Until: 18:00,                           !- Field 39
  0.6,                                    !- Field 40
  Until: 21:00,                           !- Field 41
  0.2,                                    !- Field 42
  Until: 22:00,                           !- Field 43
  0.1,                                    !- Field 44
  Until: 24:00,                           !- Field 45
  0.0,                                    !- Field 46
  For: AllOtherDays,                      !- Field 47
  Until: 09:00,                           !- Field 48
  0.0,                                    !- Field 49
  Until: 10:00,                           !- Field 50
  0.1,                                    !- Field 51
  Until: 12:00,                           !- Field 52
  0.2,                                    !- Field 53
  Until: 17:00,                           !- Field 54
  0.4,                                    !- Field 55
  Until: 18:00,                           !- Field 56
  0.2,                                    !- Field 57
  Until: 19:00,                           !- Field 58
  0.1,                                    !- Field 59
  Until: 24:00,                           !- Field 60
  0.0;                                    !- Field 61

OS:ScheduleTypeLimits,
  {0ba7cdf1-d12b-4514-a08f-7e45f2d2399b}, !- Handle
  Fraction,                               !- Name
  0,                                      !- Lower Limit Value {BasedOnField A4}
  1,                                      !- Upper Limit Value {BasedOnField A4}
  CONTINUOUS;                             !- Numeric Type

OS:Schedule:Compact,
  {b4c8b427-6cac-4614-9950-ea76753006f4}, !- Handle
  ACTIVITY_SCH,                           !- Name
  {e45a5a3a-1903-487a-ad9f-4f9eebc7a15d}, !- Schedule Type Limits Name
  Through: 12/31,                         !- Field 1
  For: AllDays,                           !- Field 2
  Until: 24:00,                           !- Field 3
  120.;                                   !- Field 4

OS:ScheduleTypeLimits,
  {384f07cf-2b6a-42f4-b975-692e2621c465}, !- Handle
  {cb3c3d8c-1049-4c50-b184-6cf11f43deac}; !- Name

OS:ScheduleTypeLimits,
  {e45a5a3a-1903-487a-ad9f-4f9eebc7a15d}, !- Handle
  ActivityLevel,                          !- Name
  0,                                      !- Lower Limit Value {BasedOnField A4}
  ,                                       !- Upper Limit Value {BasedOnField A4}
  Continuous,                             !- Numeric Type
  ActivityLevel;                          !- Unit Type

OS:Schedule:Compact,
  {57a8c022-873f-4a87-9328-249a419172cd}, !- Handle
  WORK_EFF_SCH,                           !- Name
  {0ba7cdf1-d12b-4514-a08f-7e45f2d2399b}, !- Schedule Type Limits Name
  Through: 12/31,                         !- Field 1
  For: AllDays,                           !- Field 2
  Until: 24:00,                           !- Field 3
  0.0;                                    !- Field 4

OS:Surface,
  {a14a9cfc-a361-45bc-832b-506fe3434efa}, !- Handle
  Point_Of_Sale_Wall_East_2,              !- Name
  Wall,                                   !- Surface Type
  {2ff4ef68-1190-438f-8057-465dbcb980da}, !- Construction Name
  {9a6c31a1-8265-4619-8012-aff482573345}, !- Space Name
  Surface,                                !- Outside Boundary Condition
  {d339abe8-7f86-4ac5-ac54-76c74cc65a0b}, !- Outside Boundary Condition Object
  NoSun,                                  !- Sun Exposure
  NoWind,                                 !- Wind Exposure
  ,                                       !- View Factor to Ground
  ,                                       !- Number of Vertices
  25.135, 3, 6.096,                       !- X,Y,Z Vertex 1 {m}
  25.135, 3, 0,                           !- X,Y,Z Vertex 2 {m}
  25.135, 6, 0,                           !- X,Y,Z Vertex 3 {m}
  25.135, 6, 6.096;                       !- X,Y,Z Vertex 4 {m}

OS:Construction,
  {2ff4ef68-1190-438f-8057-465dbcb980da}, !- Handle
  int-walls,                              !- Name
  ,                                       !- Surface Rendering Name
  {9b8d8189-7a71-4719-9a6e-25a583002943}, !- Layer 1
  {9b8d8189-7a71-4719-9a6e-25a583002943}; !- Layer 2

OS:Material,
  {9b8d8189-7a71-4719-9a6e-25a583002943}, !- Handle
  1/2IN Gypsum,                           !- Name
  Smooth,                                 !- Roughness
  0.0127,                                 !- Thickness {m}
  0.16,                                   !- Conductivity {W/m-K}
  784.9,                                  !- Density {kg/m3}
  830,                                    !- Specific Heat {J/kg-K}
  0.9,                                    !- Thermal Absorptance
  0.92,                                   !- Solar Absorptance
  0.92;                                   !- Visible Absorptance

OS:Meter,
  {c1860c6a-94c1-41b2-a16c-c4c46fc2753c}, !- Handle
  Electricity:Facility,                   !- Name
  hourly,                                 !- Reporting Frequency
  False,                                  !- Meter File Only
  False;                                  !- Cumulative

OS:InternalMass:Definition,
  {939b0bfa-b029-4d52-b326-45a891595e3f}, !- Handle
  Front_Retail Internal Mass Definition,  !- Name
  {4cfecf49-f319-49c4-8bab-f91c38d9faee}, !- Construction Name
  SurfaceArea,                            !- Design Level Calculation Method
  301.62,                                 !- Surface Area {m2}
  ,                                       !- Surface Area per Space Floor Area {dimensionless}
  ;                                       !- Surface Area per Person {m2/person}

OS:Construction,
  {4cfecf49-f319-49c4-8bab-f91c38d9faee}, !- Handle
  InteriorFurnishings,                    !- Name
  ,                                       !- Surface Rendering Name
  {c416f092-a842-4f83-86e1-5da145ebcd79}; !- Layer 1

OS:Material,
  {c416f092-a842-4f83-86e1-5da145ebcd79}, !- Handle
  Std Wood 6inch,                         !- Name
  MediumSmooth,                           !- Roughness
  0.15,                                   !- Thickness {m}
  0.12,                                   !- Conductivity {W/m-K}
  540,                                    !- Density {kg/m3}
  1210,                                   !- Specific Heat {J/kg-K}
  0.9,                                    !- Thermal Absorptance
  0.7,                                    !- Solar Absorptance
  0.7;                                    !- Visible Absorptance

OS:InternalMass,
  {1fb2d12e-a06d-49d5-83b7-373face376b9}, !- Handle
  Front_Retail Internal Mass,             !- Name
  {939b0bfa-b029-4d52-b326-45a891595e3f}, !- Internal Mass Definition Name
  {7b40cda5-e35f-41fe-b405-d115bf0ee89a}; !- Space or SpaceType Name

OS:Space,
  {7b40cda5-e35f-41fe-b405-d115bf0ee89a}, !- Handle
  Front_Retail,                           !- Name
  {af75b10e-b707-4999-bde5-afea44fae292}, !- Space Type Name
  ,                                       !- Default Construction Set Name
  ,                                       !- Default Schedule Set Name
  0,                                      !- Direction of Relative North {deg}
  29.135,                                 !- X Origin {m}
  0,                                      !- Y Origin {m}
  0,                                      !- Z Origin {m}
  {8d530c1e-e6bd-45a7-b539-afbdab660c5f}, !- Building Story Name
  {fa5a21b2-9e58-4957-aacc-808df4230621}, !- Thermal Zone Name
  Yes,                                    !- Part of Total Floor Area
  {cd31fa61-a420-48fb-8cd1-4d889c977f3d}; !- Design Specification Outdoor Air Object Name

OS:ThermostatSetpoint:DualSetpoint,
  {e5048618-8a75-42d7-859d-0105e44cd952}, !- Handle
  {6557df73-f079-45f6-ab56-04dc5e3b32aa}, !- Name
  {be142c7d-3e05-4d21-a21b-fe3ce17087ec}, !- Heating Setpoint Temperature Schedule Name
  {fc894f53-b12a-46f3-97e9-d19e940fc86f}; !- Cooling Setpoint Temperature Schedule Name

OS:Material,
  {2e84b58f-62bc-4335-b6f5-8f9ba901dddf}, !- Handle
  MAT-CC05 4 HW CONCRETE,                 !- Name
  Rough,                                  !- Roughness
  0.1016,                                 !- Thickness {m}
  1.311,                                  !- Conductivity {W/m-K}
  2240,                                   !- Density {kg/m3}
  836.8,                                  !- Specific Heat {J/kg-K}
  0.9,                                    !- Thermal Absorptance
  0.7,                                    !- Solar Absorptance
  0.7;                                    !- Visible Absorptance

OS:Meter,
  {22d9c44f-8574-4560-8cad-98a61982cc22}, !- Handle
  HeatRejection:Electricity,              !- Name
  hourly,                                 !- Reporting Frequency
  False,                                  !- Meter File Only
  False;                                  !- Cumulative

OS:Schedule:Compact,
  {973c793a-8ff4-45ac-ae12-b107d73b8a76}, !- Handle
  INFIL_HALF_ON_SCH,                      !- Name
  {0ba7cdf1-d12b-4514-a08f-7e45f2d2399b}, !- Schedule Type Limits Name
  Through: 12/31,                         !- Field 1
  For: Weekdays SummerDesignDay,          !- Field 2
  Until: 06:00,                           !- Field 3
  1.0,                                    !- Field 4
  Until: 21:00,                           !- Field 5
  0.5,                                    !- Field 6
  Until: 24:00,                           !- Field 7
  1.0,                                    !- Field 8
  For: Saturday,                          !- Field 9
  Until: 06:00,                           !- Field 10
  1.0,                                    !- Field 11
  Until: 22:00,                           !- Field 12
  0.5,                                    !- Field 13
  Until: 24:00,                           !- Field 14
  1.0,                                    !- Field 15
  For: WinterDesignDay,                   !- Field 16
  Until: 24:00,                           !- Field 17
  1.0,                                    !- Field 18
  For: AllOtherDays,                      !- Field 19
  Until: 08:00,                           !- Field 20
  1.0,                                    !- Field 21
  Until: 17:00,                           !- Field 22
  0.5,                                    !- Field 23
  Until: 24:00,                           !- Field 24
  1.0;                                    !- Field 25

OS:Space,
  {ed906ae6-89c7-4eb0-9a3e-7e7c3b0776c5}, !- Handle
  Core_Retail,                            !- Name
  {af75b10e-b707-4999-bde5-afea44fae292}, !- Space Type Name
  ,                                       !- Default Construction Set Name
  ,                                       !- Default Schedule Set Name
  0,                                      !- Direction of Relative North {deg}
  0,                                      !- X Origin {m}
  6,                                      !- Y Origin {m}
  0,                                      !- Z Origin {m}
  {8d530c1e-e6bd-45a7-b539-afbdab660c5f}, !- Building Story Name
  {3736367d-0e93-41fb-9a42-7903b6791992}, !- Thermal Zone Name
  Yes,                                    !- Part of Total Floor Area
  {545c8c19-fe48-4096-b403-a73378dd34f7}; !- Design Specification Outdoor Air Object Name

OS:ThermostatSetpoint:DualSetpoint,
  {93fe537d-41c3-4698-afc4-ecc493f651ff}, !- Handle
  {b7adebb3-1752-41be-a8db-532da106494e}, !- Name
  {be142c7d-3e05-4d21-a21b-fe3ce17087ec}, !- Heating Setpoint Temperature Schedule Name
  {fc894f53-b12a-46f3-97e9-d19e940fc86f}; !- Cooling Setpoint Temperature Schedule Name

OS:Space,
  {630ba670-c065-46bb-8550-00fd6d16578f}, !- Handle
  Front_Entry,                            !- Name
  {15f04e21-d507-4970-a263-2b5469e247c4}, !- Space Type Name
  ,                                       !- Default Construction Set Name
  ,                                       !- Default Schedule Set Name
  0,                                      !- Direction of Relative North {deg}
  25.135,                                 !- X Origin {m}
  0,                                      !- Y Origin {m}
  0,                                      !- Z Origin {m}
  {8d530c1e-e6bd-45a7-b539-afbdab660c5f}, !- Building Story Name
  {fa5a21b2-9e58-4957-aacc-808df4230621}, !- Thermal Zone Name
  Yes,                                    !- Part of Total Floor Area
  {fd4ee0e1-d88d-4413-8400-361ec918d740}; !- Design Specification Outdoor Air Object Name

OS:ThermostatSetpoint:DualSetpoint,
  {32501616-eb1e-45ce-b43d-ee65b32e3f87}, !- Handle
  {4d902e23-bc49-438f-a720-228b5eea2a2c}, !- Name
  {be142c7d-3e05-4d21-a21b-fe3ce17087ec}, !- Heating Setpoint Temperature Schedule Name
  {7c32731e-bfa8-4e7b-ac50-466e665e21be}; !- Cooling Setpoint Temperature Schedule Name

OS:Schedule:Compact,
  {7c32731e-bfa8-4e7b-ac50-466e665e21be}, !- Handle
  FRONT_ENTRY_COOLING,                    !- Name
  {289b6b60-031b-405a-9a5e-7fc88e755cd5}, !- Schedule Type Limits Name
  Through: 12/31,                         !- Field 1
  For: AllDays,                           !- Field 2
  Until: 24:00,                           !- Field 3
  90;                                     !- Field 4

OS:Surface,
  {d339abe8-7f86-4ac5-ac54-76c74cc65a0b}, !- Handle
  Core_Retail_Wall_West_1,                !- Name
  Wall,                                   !- Surface Type
  {2ff4ef68-1190-438f-8057-465dbcb980da}, !- Construction Name
  {ed906ae6-89c7-4eb0-9a3e-7e7c3b0776c5}, !- Space Name
  Surface,                                !- Outside Boundary Condition
  {a14a9cfc-a361-45bc-832b-506fe3434efa}, !- Outside Boundary Condition Object
  NoSun,                                  !- Sun Exposure
  NoWind,                                 !- Wind Exposure
  ,                                       !- View Factor to Ground
  ,                                       !- Number of Vertices
  25.135, 0, 6.096,                       !- X,Y,Z Vertex 1 {m}
  25.135, 0, 0,                           !- X,Y,Z Vertex 2 {m}
  25.135, -3, 0,                          !- X,Y,Z Vertex 3 {m}
  25.135, -3, 6.096;                      !- X,Y,Z Vertex 4 {m}

OS:Surface,
  {75c216a7-b521-4e7d-a4d9-2ba174ce9395}, !- Handle
  Front_Entry_Wall_North,                 !- Name
  Wall,                                   !- Surface Type
  {2ff4ef68-1190-438f-8057-465dbcb980da}, !- Construction Name
  {630ba670-c065-46bb-8550-00fd6d16578f}, !- Space Name
  Surface,                                !- Outside Boundary Condition
  {bd7c2b4f-27dc-436b-b961-b4e8e56191b1}, !- Outside Boundary Condition Object
  NoSun,                                  !- Sun Exposure
  NoWind,                                 !- Wind Exposure
  ,                                       !- View Factor to Ground
  ,                                       !- Number of Vertices
  4, 3, 6.096,                            !- X,Y,Z Vertex 1 {m}
  4, 3, 0,                                !- X,Y,Z Vertex 2 {m}
  0, 3, 0,                                !- X,Y,Z Vertex 3 {m}
  0, 3, 6.096;                            !- X,Y,Z Vertex 4 {m}

OS:Surface,
  {0b5c08c4-4159-43db-a648-1979bc15cc55}, !- Handle
  Back_Space_Wall_West,                   !- Name
  Wall,                                   !- Surface Type
  {5160b6cd-d51a-475c-8d4b-b9b23636e2d8}, !- Construction Name
  {7e8eeb69-5083-4168-b156-855822d7355b}, !- Space Name
  Outdoors,                               !- Outside Boundary Condition
  ,                                       !- Outside Boundary Condition Object
  SunExposed,                             !- Sun Exposure
  WindExposed,                            !- Wind Exposure
  ,                                       !- View Factor to Ground
  ,                                       !- Number of Vertices
  0, 7, 6.096,                            !- X,Y,Z Vertex 1 {m}
  0, 7, 0,                                !- X,Y,Z Vertex 2 {m}
  0, 0, 0,                                !- X,Y,Z Vertex 3 {m}
  0, 0, 6.096;                            !- X,Y,Z Vertex 4 {m}

OS:Construction,
  {5160b6cd-d51a-475c-8d4b-b9b23636e2d8}, !- Handle
  Mass Non-res Ext Wall,                  !- Name
  ,                                       !- Surface Rendering Name
  {cf754e1a-8f94-4cd0-a601-44d504869775}, !- Layer 1
  {676bb3a9-58f8-482c-aa73-2394951db2bd}, !- Layer 2
  {b1cc045a-2e12-4d0b-a7aa-e60362a0d4f4}, !- Layer 3
  {9b8d8189-7a71-4719-9a6e-25a583002943}; !- Layer 4

OS:Material,
  {cf754e1a-8f94-4cd0-a601-44d504869775}, !- Handle
  1IN Stucco,                             !- Name
  Smooth,                                 !- Roughness
  0.0253,                                 !- Thickness {m}
  0.6918,                                 !- Conductivity {W/m-K}
  1858,                                   !- Density {kg/m3}
  837,                                    !- Specific Heat {J/kg-K}
  0.9,                                    !- Thermal Absorptance
  0.92,                                   !- Solar Absorptance
  0.92;                                   !- Visible Absorptance

OS:Material,
  {676bb3a9-58f8-482c-aa73-2394951db2bd}, !- Handle
  8IN CONCRETE HW,                        !- Name
  Rough,                                  !- Roughness
  0.2032,                                 !- Thickness {m}
  1.311,                                  !- Conductivity {W/m-K}
  2240,                                   !- Density {kg/m3}
  836.8,                                  !- Specific Heat {J/kg-K}
  0.9,                                    !- Thermal Absorptance
  0.7,                                    !- Solar Absorptance
  0.7;                                    !- Visible Absorptance

OS:Material,
  {b1cc045a-2e12-4d0b-a7aa-e60362a0d4f4}, !- Handle
  Mass NonRes Wall Insulation,            !- Name
  MediumRough,                            !- Roughness
  0.0495494599433393,                     !- Thickness {m}
  0.049,                                  !- Conductivity {W/m-K}
  265,                                    !- Density {kg/m3}
  836.8,                                  !- Specific Heat {J/kg-K}
  0.9,                                    !- Thermal Absorptance
  0.7,                                    !- Solar Absorptance
  0.7;                                    !- Visible Absorptance

OS:Space,
  {7e8eeb69-5083-4168-b156-855822d7355b}, !- Handle
  Back_Space,                             !- Name
  {bd1befd9-8805-44a6-a34a-95f8d5b3ae52}, !- Space Type Name
  ,                                       !- Default Construction Set Name
  ,                                       !- Default Schedule Set Name
  0,                                      !- Direction of Relative North {deg}
  0,                                      !- X Origin {m}
  35.27,                                  !- Y Origin {m}
  0,                                      !- Z Origin {m}
  {8d530c1e-e6bd-45a7-b539-afbdab660c5f}, !- Building Story Name
  {8c1cedf1-768e-490a-a2e2-861a714b82f5}, !- Thermal Zone Name
  Yes,                                    !- Part of Total Floor Area
  {92460daf-0e52-4d58-97b1-be019710c823}; !- Design Specification Outdoor Air Object Name

OS:ThermostatSetpoint:DualSetpoint,
  {4bf0808d-ba9f-4d33-8fbb-8a30292fb949}, !- Handle
  {259f958d-1693-4e1f-8b29-f03f999c90d7}, !- Name
  {be142c7d-3e05-4d21-a21b-fe3ce17087ec}, !- Heating Setpoint Temperature Schedule Name
  {fc894f53-b12a-46f3-97e9-d19e940fc86f}; !- Cooling Setpoint Temperature Schedule Name

OS:Surface,
  {2e08679b-d210-4698-9bd3-3c34c9e01081}, !- Handle
  Front_Retail_Wall_West_2,               !- Name
  Wall,                                   !- Surface Type
  {2ff4ef68-1190-438f-8057-465dbcb980da}, !- Construction Name
  {7b40cda5-e35f-41fe-b405-d115bf0ee89a}, !- Space Name
  Surface,                                !- Outside Boundary Condition
  {3a3efd41-c978-41f6-b813-b228f7f98a41}, !- Outside Boundary Condition Object
  NoSun,                                  !- Sun Exposure
  NoWind,                                 !- Wind Exposure
  ,                                       !- View Factor to Ground
  ,                                       !- Number of Vertices
  0, 6, 6.096,                            !- X,Y,Z Vertex 1 {m}