
OS:Version,
  {0d07cd7f-24e8-40ef-b45f-14b73572f1f5}, !- Handle
  1.8.0;                                  !- Version Identifier

OS:Site,
  {35340711-6cae-47c5-9ea8-7345442313b4}, !- Handle
  USA IL-CHICAGO-OHARE,                   !- Name
  41.77,                                  !- Latitude {deg}
  -87.75,                                 !- Longitude {deg}
  -6,                                     !- Time Zone {hr}
  190,                                    !- Elevation {m}
  City;                                   !- Terrain

OS:SimulationControl,
  {4dc5e7e6-773b-44c6-97ed-b88a1456608e}, !- Handle
  Yes,                                    !- Do Zone Sizing Calculation
  Yes,                                    !- Do System Sizing Calculation
  Yes,                                    !- Do Plant Sizing Calculation
  No,                                     !- Run Simulation for Sizing Periods
  Yes,                                    !- Run Simulation for Weather File Run Periods
  0.04,                                   !- Loads Convergence Tolerance Value
  0.2,                                    !- Temperature Convergence Tolerance Value {deltaC}
  FullInteriorAndExterior,                !- Solar Distribution
  25,                                     !- Maximum Number of Warmup Days
  6;                                      !- Minimum Number of Warmup Days

OS:Schedule:Compact,
  {ba423a2e-8c81-4365-8058-6127240e4a5c}, !- Handle
  HVACOperationSchd,                      !- Name
  {b04eff48-1068-4bc3-be59-b1d11ca6fcf5}, !- Schedule Type Limits Name
  Through: 12/31,                         !- Field 1
  For: Weekdays SummerDesignDay,          !- Field 2
  Until: 06:00,                           !- Field 3
  0.0,                                    !- Field 4
  Until: 21:00,                           !- Field 5
  1.0,                                    !- Field 6
  Until: 24:00,                           !- Field 7
  0.0,                                    !- Field 8
  For: Saturday WinterDesignDay,          !- Field 9
  Until: 06:00,                           !- Field 10
  0.0,                                    !- Field 11
  Until: 22:00,                           !- Field 12
  1.0,                                    !- Field 13
  Until: 24:00,                           !- Field 14
  0.0,                                    !- Field 15
  For: AllOtherDays,                      !- Field 16
  Until: 08:00,                           !- Field 17
  0.0,                                    !- Field 18
  Until: 19:00,                           !- Field 19
  1.0,                                    !- Field 20
  Until: 24:00,                           !- Field 21
  0.0;                                    !- Field 22

OS:ScheduleTypeLimits,
  {b04eff48-1068-4bc3-be59-b1d11ca6fcf5}, !- Handle
  On/Off,                                 !- Name
  0,                                      !- Lower Limit Value {BasedOnField A4}
  1,                                      !- Upper Limit Value {BasedOnField A4}
  DISCRETE,                               !- Numeric Type
  Availability;                           !- Unit Type

OS:Lights:Definition,
  {8a458a7f-3ac1-4997-a4b2-f1826e97482f}, !- Handle
  Front_Retail_Lights Definition,         !- Name
  Watts/Area,                             !- Design Level Calculation Method
  ,                                       !- Lighting Level {W}
  18.29,                                  !- Watts per Space Floor Area {W/m2}
  ,                                       !- Watts per Person {W/person}
  0.7,                                    !- Fraction Radiant
  0.2,                                    !- Fraction Visible
  0,                                      !- Return Air Fraction
  No;                                     !- Return Air Fraction Calculated from Plenum Temperature

OS:Lights,
  {61f583db-7637-4da9-8fa9-08eb50da70fb}, !- Handle
  Front_Retail_Lights,                    !- Name
  {8a458a7f-3ac1-4997-a4b2-f1826e97482f}, !- Lights Definition Name
  {b974c438-74ff-42bf-93a6-6fb456524f27}, !- Space or SpaceType Name
  {4f3af13d-3a07-48c9-be7b-3f6f821096ba}, !- Schedule Name
  1,                                      !- Fraction Replaceable
  ,                                       !- Multiplier
  General;                                !- End-Use Subcategory

OS:Space,
  {b974c438-74ff-42bf-93a6-6fb456524f27}, !- Handle
  Front_Retail,                           !- Name
  {4881e2a0-562d-4435-a3ab-af063bf4b4df}, !- Space Type Name
  ,                                       !- Default Construction Set Name
  ,                                       !- Default Schedule Set Name
  0,                                      !- Direction of Relative North {deg}
  29.135,                                 !- X Origin {m}
  0,                                      !- Y Origin {m}
  0,                                      !- Z Origin {m}
  {0b12ff02-a924-4375-8084-46d03f515619}, !- Building Story Name
  {d38e2e34-b10c-4ec0-a7bb-85f9244a2cb6}, !- Thermal Zone Name
  Yes,                                    !- Part of Total Floor Area
  {b078ff0a-817b-4570-a152-b62e452feb2e}; !- Design Specification Outdoor Air Object Name

OS:ThermostatSetpoint:DualSetpoint,
  {e1cc2eb4-5363-42b1-b78f-71e22641cf09}, !- Handle
  {120e9c43-8df1-449c-b538-73299389778f}, !- Name
  {6daba943-4126-41ee-bf20-85ffc029427a}, !- Heating Setpoint Temperature Schedule Name
  {b9393703-708b-4a36-94d7-d58a908f939e}; !- Cooling Setpoint Temperature Schedule Name

OS:Schedule:Compact,
  {6daba943-4126-41ee-bf20-85ffc029427a}, !- Handle
  HTGSETP_SCH,                            !- Name
  {1392f303-b4de-4bb6-bc8c-c798e9b48fda}, !- Schedule Type Limits Name
  Through: 12/31,                         !- Field 1
  For: Weekdays,                          !- Field 2
  Until: 06:00,                           !- Field 3
  15.6,                                   !- Field 4
  Until: 21:00,                           !- Field 5
  21.0,                                   !- Field 6
  Until: 24:00,                           !- Field 7
  15.6,                                   !- Field 8
  For SummerDesignDay,                    !- Field 9
  Until: 24:00,                           !- Field 10
  15.6,                                   !- Field 11
  For WinterDesignDay,                    !- Field 12
  Until: 24:00,                           !- Field 13
  21.0,                                   !- Field 14
  For: Saturday,                          !- Field 15
  Until: 06:00,                           !- Field 16
  15.6,                                   !- Field 17
  Until: 22:00,                           !- Field 18
  21.0,                                   !- Field 19
  Until: 24:00,                           !- Field 20
  15.6,                                   !- Field 21
  For: Sunday Holidays AllOtherDays,      !- Field 22
  Until:  8:00,                           !- Field 23
  15.6,                                   !- Field 24
  Until: 19:00,                           !- Field 25
  21.,                                    !- Field 26
  Until: 24:00,                           !- Field 27
  15.6;                                   !- Field 28

OS:ScheduleTypeLimits,
  {1392f303-b4de-4bb6-bc8c-c798e9b48fda}, !- Handle
  Temperature,                            !- Name
  -60,                                    !- Lower Limit Value {BasedOnField A4}
  200,                                    !- Upper Limit Value {BasedOnField A4}
  CONTINUOUS,                             !- Numeric Type
  Temperature;                            !- Unit Type

OS:Schedule:Compact,
  {b9393703-708b-4a36-94d7-d58a908f939e}, !- Handle
  CLGSETP_SCH,                            !- Name
  {1392f303-b4de-4bb6-bc8c-c798e9b48fda}, !- Schedule Type Limits Name
  Through: 12/31,                         !- Field 1
  For: Weekdays SummerDesignDay,          !- Field 2
  Until: 06:00,                           !- Field 3
  30.0,                                   !- Field 4
  Until: 21:00,                           !- Field 5
  24.0,                                   !- Field 6
  Until: 24:00,                           !- Field 7
  30.0,                                   !- Field 8
  For: Saturday,                          !- Field 9
  Until: 06:00,                           !- Field 10
  30.0,                                   !- Field 11
  Until: 22:00,                           !- Field 12
  24.0,                                   !- Field 13
  Until: 24:00,                           !- Field 14
  30.0,                                   !- Field 15
  For WinterDesignDay,                    !- Field 16
  Until: 24:00,                           !- Field 17
  30.0,                                   !- Field 18
  For: Sunday Holidays AllOtherDays,      !- Field 19
  Until: 8:00,                            !- Field 20
  30.0,                                   !- Field 21
  Until: 19:00,                           !- Field 22
  24.0,                                   !- Field 23
  Until: 24:00,                           !- Field 24
  30.0;                                   !- Field 25

OS:Schedule:Compact,
  {4f3af13d-3a07-48c9-be7b-3f6f821096ba}, !- Handle
  BLDG_LIGHT_SCH,                         !- Name
  {10c9dd65-273e-44cd-bb86-c9f5e6558b79}, !- Schedule Type Limits Name
  Through: 12/31,                         !- Field 1
  For: Weekdays,                          !- Field 2
  Until: 07:00,                           !- Field 3
  0.05,                                   !- Field 4
  Until: 08:00,                           !- Field 5
  0.2,                                    !- Field 6
  Until: 09:00,                           !- Field 7
  0.5,                                    !- Field 8
  Until: 18:00,                           !- Field 9
  0.9,                                    !- Field 10
  Until: 20:00,                           !- Field 11
  0.6,                                    !- Field 12
  Until: 21:00,                           !- Field 13
  0.5,                                    !- Field 14
  Until: 22:00,                           !- Field 15
  0.2,                                    !- Field 16
  Until: 24:00,                           !- Field 17
  0.05,                                   !- Field 18
  For: Saturday,                          !- Field 19
  Until: 07:00,                           !- Field 20
  0.05,                                   !- Field 21
  Until: 08:00,                           !- Field 22
  0.1,                                    !- Field 23
  Until: 09:00,                           !- Field 24
  0.3,                                    !- Field 25
  Until: 10:00,                           !- Field 26
  0.6,                                    !- Field 27
  Until: 18:00,                           !- Field 28
  0.9,                                    !- Field 29
  Until: 19:00,                           !- Field 30
  0.5,                                    !- Field 31
  Until: 21:00,                           !- Field 32
  0.3,                                    !- Field 33
  Until: 22:00,                           !- Field 34
  0.1,                                    !- Field 35
  Until: 24:00,                           !- Field 36
  0.05,                                   !- Field 37
  For: SummerDesignDay,                   !- Field 38
  Until: 24:00,                           !- Field 39
  1.0,                                    !- Field 40
  For: WinterDesignDay,                   !- Field 41
  Until: 24:00,                           !- Field 42
  0.0,                                    !- Field 43
  For: AllOtherDays,                      !- Field 44
  Until: 08:00,                           !- Field 45
  0.05,                                   !- Field 46
  Until: 10:00,                           !- Field 47
  0.1,                                    !- Field 48
  Until: 12:00,                           !- Field 49
  0.4,                                    !- Field 50
  Until: 17:00,                           !- Field 51
  0.6,                                    !- Field 52
  Until: 18:00,                           !- Field 53
  0.4,                                    !- Field 54
  Until: 19:00,                           !- Field 55
  0.2,                                    !- Field 56
  Until: 24:00,                           !- Field 57
  0.05;                                   !- Field 58

OS:ScheduleTypeLimits,
  {10c9dd65-273e-44cd-bb86-c9f5e6558b79}, !- Handle
  Fraction,                               !- Name
  0,                                      !- Lower Limit Value {BasedOnField A4}
  1,                                      !- Upper Limit Value {BasedOnField A4}
  CONTINUOUS;                             !- Numeric Type

OS:Surface,
  {123a789b-b2e0-4d9e-a093-52a9ee55a442}, !- Handle
  Front_Retail_Wall_West_1,               !- Name
  Wall,                                   !- Surface Type
  {8d9abb04-b720-4b5b-863b-edc87dd48cfa}, !- Construction Name
  {b974c438-74ff-42bf-93a6-6fb456524f27}, !- Space Name
  Surface,                                !- Outside Boundary Condition
  {75bf0a72-238f-4f77-9fad-e4122662ff26}, !- Outside Boundary Condition Object
  NoSun,                                  !- Sun Exposure
  NoWind,                                 !- Wind Exposure
  ,                                       !- View Factor to Ground
  ,                                       !- Number of Vertices
  0, 3, 6.096,                            !- X,Y,Z Vertex 1 {m}
  0, 3, 0,                                !- X,Y,Z Vertex 2 {m}
  0, 0, 0,                                !- X,Y,Z Vertex 3 {m}
  0, 0, 6.096;                            !- X,Y,Z Vertex 4 {m}

OS:Construction,
  {8d9abb04-b720-4b5b-863b-edc87dd48cfa}, !- Handle
  int-walls,                              !- Name
  ,                                       !- Surface Rendering Name
  {8c147b90-46ac-4d14-91df-360101ebe0e5}, !- Layer 1
  {8c147b90-46ac-4d14-91df-360101ebe0e5}; !- Layer 2

OS:Material,
  {8c147b90-46ac-4d14-91df-360101ebe0e5}, !- Handle
  1/2IN Gypsum,                           !- Name
  Smooth,                                 !- Roughness
  0.0127,                                 !- Thickness {m}
  0.16,                                   !- Conductivity {W/m-K}
  784.9,                                  !- Density {kg/m3}
  830,                                    !- Specific Heat {J/kg-K}
  0.9,                                    !- Thermal Absorptance
  0.92,                                   !- Solar Absorptance
  0.92;                                   !- Visible Absorptance

OS:Meter,
  {a931a80a-b6e4-4094-8efd-869ed655f530}, !- Handle
  InteriorEquipment:Gas,                  !- Name
  hourly,                                 !- Reporting Frequency
  False,                                  !- Meter File Only
  False;                                  !- Cumulative

OS:Surface,
  {a12797db-b803-42a1-8250-3062b8b1cfbf}, !- Handle
  Front_Retail_Wall_West_2,               !- Name
  Wall,                                   !- Surface Type
  {8d9abb04-b720-4b5b-863b-edc87dd48cfa}, !- Construction Name
  {b974c438-74ff-42bf-93a6-6fb456524f27}, !- Space Name
  Surface,                                !- Outside Boundary Condition
  {ab057ceb-6306-44a9-a7b9-7e71e754c95d}, !- Outside Boundary Condition Object
  NoSun,                                  !- Sun Exposure
  NoWind,                                 !- Wind Exposure
  ,                                       !- View Factor to Ground
  ,                                       !- Number of Vertices
  0, 6, 6.096,                            !- X,Y,Z Vertex 1 {m}
  0, 6, 0,                                !- X,Y,Z Vertex 2 {m}
  0, 3, 0,                                !- X,Y,Z Vertex 3 {m}
  0, 3, 6.096;                            !- X,Y,Z Vertex 4 {m}

OS:Material,
  {36a6c5a5-dcf2-437e-9aca-4ac033b684fb}, !- Handle
  Wood Siding,                            !- Name
  MediumSmooth,                           !- Roughness
  0.01,                                   !- Thickness {m}
  0.11,                                   !- Conductivity {W/m-K}
  544.62,                                 !- Density {kg/m3}
  1210,                                   !- Specific Heat {J/kg-K}
  0.9,                                    !- Thermal Absorptance
  0.78,                                   !- Solar Absorptance
  0.78;                                   !- Visible Absorptance

OS:ScheduleTypeLimits,
  {444bb3ef-4503-4c77-a84e-245a32bcf2a5}, !- Handle
  Humidity,                               !- Name
  10,                                     !- Lower Limit Value {BasedOnField A4}
  90,                                     !- Upper Limit Value {BasedOnField A4}
  CONTINUOUS;                             !- Numeric Type

OS:Lights:Definition,
  {d783cb49-e906-4fe5-813b-a90b13d46b4c}, !- Handle
  Core_Retail_Lights Definition,          !- Name
  Watts/Area,                             !- Design Level Calculation Method
  ,                                       !- Lighting Level {W}
  18.29,                                  !- Watts per Space Floor Area {W/m2}
  ,                                       !- Watts per Person {W/person}
  0.7,                                    !- Fraction Radiant
  0.2,                                    !- Fraction Visible
  0,                                      !- Return Air Fraction
  No;                                     !- Return Air Fraction Calculated from Plenum Temperature

OS:Lights,
  {38344e36-9386-44d2-a989-3f7f2bc853fb}, !- Handle
  Core_Retail_Lights,                     !- Name
  {d783cb49-e906-4fe5-813b-a90b13d46b4c}, !- Lights Definition Name
  {169593d3-8a2a-40da-94b9-29b87723baaf}, !- Space or SpaceType Name
  {4f3af13d-3a07-48c9-be7b-3f6f821096ba}, !- Schedule Name
  1,                                      !- Fraction Replaceable
  ,                                       !- Multiplier
  General;                                !- End-Use Subcategory

OS:Space,
  {169593d3-8a2a-40da-94b9-29b87723baaf}, !- Handle
  Core_Retail,                            !- Name
  {4881e2a0-562d-4435-a3ab-af063bf4b4df}, !- Space Type Name
  ,                                       !- Default Construction Set Name
  ,                                       !- Default Schedule Set Name
  0,                                      !- Direction of Relative North {deg}
  0,                                      !- X Origin {m}
  6,                                      !- Y Origin {m}
  0,                                      !- Z Origin {m}
  {0b12ff02-a924-4375-8084-46d03f515619}, !- Building Story Name
  {2e4347b6-95d8-4a56-9f2f-d963ea2fdb44}, !- Thermal Zone Name
  Yes,                                    !- Part of Total Floor Area
  {cae8fb5c-3922-4de7-a366-2b74133b7a5f}; !- Design Specification Outdoor Air Object Name

OS:ThermostatSetpoint:DualSetpoint,
  {e35f460b-5634-4e94-8e08-229a46bb2ddc}, !- Handle
  {56eb8b2d-e5a3-4073-8230-95ed6cbc1078}, !- Name
  {6daba943-4126-41ee-bf20-85ffc029427a}, !- Heating Setpoint Temperature Schedule Name
  {b9393703-708b-4a36-94d7-d58a908f939e}; !- Cooling Setpoint Temperature Schedule Name

OS:Surface,
  {b1f8bb3b-7eb2-4e62-bc68-85ca637f5947}, !- Handle
  Core_Retail_Wall_West_2,                !- Name
  Wall,                                   !- Surface Type
  {c44e6862-9807-4d58-89d6-7160f5b1b2d6}, !- Construction Name
  {169593d3-8a2a-40da-94b9-29b87723baaf}, !- Space Name
  Outdoors,                               !- Outside Boundary Condition
  ,                                       !- Outside Boundary Condition Object
  SunExposed,                             !- Sun Exposure
  WindExposed,                            !- Wind Exposure
  ,                                       !- View Factor to Ground
  ,                                       !- Number of Vertices
  0, 29.27, 6.096,                        !- X,Y,Z Vertex 1 {m}
  0, 29.27, 0,                            !- X,Y,Z Vertex 2 {m}
  0, 0, 0,                                !- X,Y,Z Vertex 3 {m}
  0, 0, 6.096;                            !- X,Y,Z Vertex 4 {m}

OS:Construction,
  {c44e6862-9807-4d58-89d6-7160f5b1b2d6}, !- Handle
  Mass Non-res Ext Wall,                  !- Name
  ,                                       !- Surface Rendering Name
  {17e87de1-6271-4d5c-8006-df9974d2bdc1}, !- Layer 1
  {19cb799f-922f-4f77-9d4f-e3d4f968a0aa}, !- Layer 2
  {b319f747-8342-48f5-818c-a302154125b6}, !- Layer 3
  {8c147b90-46ac-4d14-91df-360101ebe0e5}; !- Layer 4

OS:Material,
  {17e87de1-6271-4d5c-8006-df9974d2bdc1}, !- Handle
  1IN Stucco,                             !- Name
  Smooth,                                 !- Roughness
  0.0253,                                 !- Thickness {m}
  0.6918,                                 !- Conductivity {W/m-K}
  1858,                                   !- Density {kg/m3}
  837,                                    !- Specific Heat {J/kg-K}
  0.9,                                    !- Thermal Absorptance
  0.92,                                   !- Solar Absorptance
  0.92;                                   !- Visible Absorptance

OS:Material,
  {19cb799f-922f-4f77-9d4f-e3d4f968a0aa}, !- Handle
  8IN CONCRETE HW,                        !- Name
  Rough,                                  !- Roughness
  0.2032,                                 !- Thickness {m}
  1.311,                                  !- Conductivity {W/m-K}
  2240,                                   !- Density {kg/m3}
  836.8,                                  !- Specific Heat {J/kg-K}
  0.9,                                    !- Thermal Absorptance
  0.7,                                    !- Solar Absorptance
  0.7;                                    !- Visible Absorptance

OS:Material,
  {b319f747-8342-48f5-818c-a302154125b6}, !- Handle
  Mass NonRes Wall Insulation,            !- Name
  MediumRough,                            !- Roughness
  0.0495494599433393,                     !- Thickness {m}
  0.049,                                  !- Conductivity {W/m-K}
  265,                                    !- Density {kg/m3}
  836.8,                                  !- Specific Heat {J/kg-K}
  0.9,                                    !- Thermal Absorptance
  0.7,                                    !- Solar Absorptance
  0.7;                                    !- Visible Absorptance

OS:DesignSpecification:OutdoorAir,
  {cae8fb5c-3922-4de7-a366-2b74133b7a5f}, !- Handle
  SZ DSOA Core_Retail,                    !- Name
  ,                                       !- Outdoor Air Method
  ,                                       !- Outdoor Air Flow per Person {m3/s-person}
  0.0015,                                 !- Outdoor Air Flow per Floor Area {m3/s-m2}
  ,                                       !- Outdoor Air Flow Rate {m3/s}
  ,                                       !- Outdoor Air Flow Air Changes per Hour {1/hr}
  ;                                       !- Outdoor Air Flow Rate Fraction Schedule Name

OS:Surface,
  {04b85425-6d4b-4016-9c63-e9e0a448f005}, !- Handle
  Core_Retail_Wall_South_3,               !- Name
  Wall,                                   !- Surface Type
  {8d9abb04-b720-4b5b-863b-edc87dd48cfa}, !- Construction Name
  {169593d3-8a2a-40da-94b9-29b87723baaf}, !- Space Name
  Surface,                                !- Outside Boundary Condition
  {89eb6d0b-599e-4d39-9c7c-d3300d3e51f7}, !- Outside Boundary Condition Object
  NoSun,                                  !- Sun Exposure
  NoWind,                                 !- Wind Exposure
  ,                                       !- View Factor to Ground
  ,                                       !- Number of Vertices
  29.135, 0, 6.096,                       !- X,Y,Z Vertex 1 {m}
  29.135, 0, 0,                           !- X,Y,Z Vertex 2 {m}
  54.27, 0, 0,                            !- X,Y,Z Vertex 3 {m}
  54.27, 0, 6.096;                        !- X,Y,Z Vertex 4 {m}

OS:Surface,
  {8a85ac20-3f10-4f57-9ffb-1966a51526c9}, !- Handle
  Point_Of_Sale_Roof,                     !- Name
  RoofCeiling,                            !- Surface Type
  {3f4bcb5d-67e1-4387-9437-acb1a54ddb60}, !- Construction Name
  {40f77439-6174-4512-a2ee-587fc8f9d461}, !- Space Name
  Outdoors,                               !- Outside Boundary Condition
  ,                                       !- Outside Boundary Condition Object
  SunExposed,                             !- Sun Exposure
  WindExposed,                            !- Wind Exposure
  ,                                       !- View Factor to Ground
  ,                                       !- Number of Vertices
  25.135, 0, 6.096,                       !- X,Y,Z Vertex 1 {m}
  25.135, 6, 6.096,                       !- X,Y,Z Vertex 2 {m}
  0, 6, 6.096,                            !- X,Y,Z Vertex 3 {m}
  0, 0, 6.096;                            !- X,Y,Z Vertex 4 {m}

OS:Construction,
  {3f4bcb5d-67e1-4387-9437-acb1a54ddb60}, !- Handle
  IEAD Non-res Roof,                      !- Name
  ,                                       !- Surface Rendering Name
  {a565ec6d-d0a9-4b66-811f-d5ae3b0df51e}, !- Layer 1
  {098c22c0-6e67-48d3-90c6-be4a1469d830}, !- Layer 2
  {b99640f4-667b-4ab6-a2b2-eca5b539ec52}; !- Layer 3

OS:Material,
  {a565ec6d-d0a9-4b66-811f-d5ae3b0df51e}, !- Handle
  Roof Membrane,                          !- Name
  VeryRough,                              !- Roughness
  0.0095,                                 !- Thickness {m}
  0.16,                                   !- Conductivity {W/m-K}
  1121.29,                                !- Density {kg/m3}
  1460,                                   !- Specific Heat {J/kg-K}
  0.9,                                    !- Thermal Absorptance
  0.7,                                    !- Solar Absorptance
  0.7;                                    !- Visible Absorptance

OS:Material,
  {098c22c0-6e67-48d3-90c6-be4a1469d830}, !- Handle
  IEAD NonRes Roof Insulation,            !- Name
  MediumRough,                            !- Roughness
  0.127338688569477,                      !- Thickness {m}
  0.049,                                  !- Conductivity {W/m-K}
  265,                                    !- Density {kg/m3}
  836.8,                                  !- Specific Heat {J/kg-K}
  0.9,                                    !- Thermal Absorptance
  0.7,                                    !- Solar Absorptance
  0.7;                                    !- Visible Absorptance

OS:Material,
  {b99640f4-667b-4ab6-a2b2-eca5b539ec52}, !- Handle
  Metal Decking,                          !- Name
  MediumSmooth,                           !- Roughness
  0.0015,                                 !- Thickness {m}
  45.006,                                 !- Conductivity {W/m-K}
  7680,                                   !- Density {kg/m3}
  418.4,                                  !- Specific Heat {J/kg-K}
  0.9,                                    !- Thermal Absorptance
  0.7,                                    !- Solar Absorptance
  0.3;                                    !- Visible Absorptance

OS:Space,
  {40f77439-6174-4512-a2ee-587fc8f9d461}, !- Handle
  Point_Of_Sale,                          !- Name
  {4881e2a0-562d-4435-a3ab-af063bf4b4df}, !- Space Type Name
  ,                                       !- Default Construction Set Name
  ,                                       !- Default Schedule Set Name
  0,                                      !- Direction of Relative North {deg}
  0,                                      !- X Origin {m}
  0,                                      !- Y Origin {m}
  0,                                      !- Z Origin {m}
  {0b12ff02-a924-4375-8084-46d03f515619}, !- Building Story Name
  {d38e2e34-b10c-4ec0-a7bb-85f9244a2cb6}, !- Thermal Zone Name
  Yes,                                    !- Part of Total Floor Area
  {9877f19a-db12-45cd-8d89-947cfd2432a1}; !- Design Specification Outdoor Air Object Name

OS:ThermostatSetpoint:DualSetpoint,
  {51885b31-3766-48fe-a2c4-52e01298e659}, !- Handle
  {8bde9b72-cdb6-4b81-bdd1-95269857c5e1}, !- Name
  {6daba943-4126-41ee-bf20-85ffc029427a}, !- Heating Setpoint Temperature Schedule Name
  {b9393703-708b-4a36-94d7-d58a908f939e}; !- Cooling Setpoint Temperature Schedule Name

OS:People:Definition,
  {b26eafc1-8b1a-4467-b7e6-d8376d32822b}, !- Handle
  Back_Space People Definition,           !- Name
  Area/Person,                            !- Number of People Calculation Method
  ,                                       !- Number of People {people}
  ,                                       !- People per Space Floor Area {person/m2}
  27.87,                                  !- Space Floor Area per Person {m2/person}
  0.3,                                    !- Fraction Radiant
  ,                                       !- Sensible Heat Fraction
  ,                                       !- Carbon Dioxide Generation Rate {m3/s-W}
  No,                                     !- Enable ASHRAE 55 Comfort Warnings
  ZoneAveraged;                           !- Mean Radiant Temperature Calculation Type

OS:People,
  {cacb332b-094b-4b7e-984c-1cfaacb03678}, !- Handle
  Back_Space People,                      !- Name
  {b26eafc1-8b1a-4467-b7e6-d8376d32822b}, !- People Definition Name
  {ac855812-6f9c-4767-af52-068796756ab4}, !- Space or SpaceType Name
  {f6e260ef-2bf2-424f-8178-da528c5c8097}, !- Number of People Schedule Name
  {b8a74ad8-ee76-45bf-9b96-a57b58663721}, !- Activity Level Schedule Name
  ,                                       !- Surface Name/Angle Factor List Name
  {7ee3e5e8-03c4-4148-a845-1023f01dca3f}; !- Work Efficiency Schedule Name

OS:Space,
  {ac855812-6f9c-4767-af52-068796756ab4}, !- Handle
  Back_Space,                             !- Name
  {2f26c90b-6ca0-4a0f-baf4-08e92b5e4fff}, !- Space Type Name