
OS:Version,
  {610272c4-4064-47ef-a557-295d8f7aae39}, !- Handle
  1.8.0;                                  !- Version Identifier

OS:Site,
  {b63ccb61-91ca-4452-bcb7-1cec04820fae}, !- Handle
  USA IL-CHICAGO-OHARE,                   !- Name
  41.77,                                  !- Latitude {deg}
  -87.75,                                 !- Longitude {deg}
  -6,                                     !- Time Zone {hr}
  190,                                    !- Elevation {m}
  City;                                   !- Terrain

OS:SimulationControl,
  {4ef3978c-4276-4f91-8e5d-d7c231b11055}, !- Handle
  Yes,                                    !- Do Zone Sizing Calculation
  Yes,                                    !- Do System Sizing Calculation
  Yes,                                    !- Do Plant Sizing Calculation
  No,                                     !- Run Simulation for Sizing Periods
  Yes,                                    !- Run Simulation for Weather File Run Periods
  0.04,                                   !- Loads Convergence Tolerance Value
  0.2,                                    !- Temperature Convergence Tolerance Value {deltaC}
  FullInteriorAndExterior,                !- Solar Distribution
  25,                                     !- Maximum Number of Warmup Days
  6;                                      !- Minimum Number of Warmup Days

OS:Construction,
  {e75f4c59-6b52-4a85-8246-376563028766}, !- Handle
  InteriorFurnishings,                    !- Name
  ,                                       !- Surface Rendering Name
  {f2e9285f-8128-45fb-9c01-8fbc99bbefdf}; !- Layer 1

OS:Material,
  {f2e9285f-8128-45fb-9c01-8fbc99bbefdf}, !- Handle
  Std Wood 6inch,                         !- Name
  MediumSmooth,                           !- Roughness
  0.15,                                   !- Thickness {m}
  0.12,                                   !- Conductivity {W/m-K}
  540,                                    !- Density {kg/m3}
  1210,                                   !- Specific Heat {J/kg-K}
  0.9,                                    !- Thermal Absorptance
  0.7,                                    !- Solar Absorptance
  0.7;                                    !- Visible Absorptance

OS:Meter,
  {56f8e874-b13b-47ab-bb1b-144247d1a9a4}, !- Handle
  WaterSystems:Gas,                       !- Name
  hourly,                                 !- Reporting Frequency
  False,                                  !- Meter File Only
  False;                                  !- Cumulative

OS:Surface,
  {70566045-d684-4ccc-bc5e-e22ca3b89415}, !- Handle
  Back_Space_Wall_South,                  !- Name
  Wall,                                   !- Surface Type
  {287ec284-29aa-4f65-8dab-ec993d70af08}, !- Construction Name
  {96b0199f-fd8e-4376-9ca0-94fac18fb6e4}, !- Space Name
  Surface,                                !- Outside Boundary Condition
  {04dccb7f-8fd3-44c8-8490-ca9da3d19c45}, !- Outside Boundary Condition Object
  NoSun,                                  !- Sun Exposure
  NoWind,                                 !- Wind Exposure
  ,                                       !- View Factor to Ground
  ,                                       !- Number of Vertices
  0, 0, 6.096,                            !- X,Y,Z Vertex 1 {m}
  0, 0, 0,                                !- X,Y,Z Vertex 2 {m}
  54.27, 0, 0,                            !- X,Y,Z Vertex 3 {m}
  54.27, 0, 6.096;                        !- X,Y,Z Vertex 4 {m}

OS:Construction,
  {287ec284-29aa-4f65-8dab-ec993d70af08}, !- Handle
  int-walls,                              !- Name
  ,                                       !- Surface Rendering Name
  {b1ab75ef-2522-4459-a2ae-bf45f3064f7a}, !- Layer 1
  {b1ab75ef-2522-4459-a2ae-bf45f3064f7a}; !- Layer 2

OS:Material,
  {b1ab75ef-2522-4459-a2ae-bf45f3064f7a}, !- Handle
  1/2IN Gypsum,                           !- Name
  Smooth,                                 !- Roughness
  0.0127,                                 !- Thickness {m}
  0.16,                                   !- Conductivity {W/m-K}
  784.9,                                  !- Density {kg/m3}
  830,                                    !- Specific Heat {J/kg-K}
  0.9,                                    !- Thermal Absorptance
  0.92,                                   !- Solar Absorptance
  0.92;                                   !- Visible Absorptance

OS:Space,
  {96b0199f-fd8e-4376-9ca0-94fac18fb6e4}, !- Handle
  Back_Space,                             !- Name
  {0c4e50ed-2216-40ad-8303-2b8fdb2f9161}, !- Space Type Name
  ,                                       !- Default Construction Set Name
  ,                                       !- Default Schedule Set Name
  0,                                      !- Direction of Relative North {deg}
  0,                                      !- X Origin {m}
  35.27,                                  !- Y Origin {m}
  0,                                      !- Z Origin {m}
  {fde666f0-78c5-49ed-ac54-75b6a5876102}, !- Building Story Name
  {214d409b-af72-42bf-860e-6e86a6f43167}, !- Thermal Zone Name
  Yes,                                    !- Part of Total Floor Area
  {a726b695-c751-4500-b1b1-288f2dbedd20}; !- Design Specification Outdoor Air Object Name

OS:ThermostatSetpoint:DualSetpoint,
  {71c3a136-3f0d-4215-8af3-52c1ea72ab01}, !- Handle
  {09417d18-d8b4-42c9-b45a-18c6c79eb715}, !- Name
  {283c95fc-5020-4ff5-942f-36f20b68bd21}, !- Heating Setpoint Temperature Schedule Name
  {029ed5e4-b079-40c2-b0f7-11153f4aea7c}; !- Cooling Setpoint Temperature Schedule Name

OS:Schedule:Compact,
  {283c95fc-5020-4ff5-942f-36f20b68bd21}, !- Handle
  HTGSETP_SCH,                            !- Name
  {fe47f78b-b301-4003-b25a-8d1c7b71f54f}, !- Schedule Type Limits Name
  Through: 12/31,                         !- Field 1
  For: Weekdays,                          !- Field 2
  Until: 06:00,                           !- Field 3
  15.6,                                   !- Field 4
  Until: 21:00,                           !- Field 5
  21.0,                                   !- Field 6
  Until: 24:00,                           !- Field 7
  15.6,                                   !- Field 8
  For SummerDesignDay,                    !- Field 9
  Until: 24:00,                           !- Field 10
  15.6,                                   !- Field 11
  For WinterDesignDay,                    !- Field 12
  Until: 24:00,                           !- Field 13
  21.0,                                   !- Field 14
  For: Saturday,                          !- Field 15
  Until: 06:00,                           !- Field 16
  15.6,                                   !- Field 17
  Until: 22:00,                           !- Field 18
  21.0,                                   !- Field 19
  Until: 24:00,                           !- Field 20
  15.6,                                   !- Field 21
  For: Sunday Holidays AllOtherDays,      !- Field 22
  Until:  8:00,                           !- Field 23
  15.6,                                   !- Field 24
  Until: 19:00,                           !- Field 25
  21.,                                    !- Field 26
  Until: 24:00,                           !- Field 27
  15.6;                                   !- Field 28

OS:ScheduleTypeLimits,
  {fe47f78b-b301-4003-b25a-8d1c7b71f54f}, !- Handle
  Temperature,                            !- Name
  -60,                                    !- Lower Limit Value {BasedOnField A4}
  200,                                    !- Upper Limit Value {BasedOnField A4}
  CONTINUOUS,                             !- Numeric Type
  Temperature;                            !- Unit Type

OS:Schedule:Compact,
  {029ed5e4-b079-40c2-b0f7-11153f4aea7c}, !- Handle
  CLGSETP_SCH,                            !- Name
  {fe47f78b-b301-4003-b25a-8d1c7b71f54f}, !- Schedule Type Limits Name
  Through: 12/31,                         !- Field 1
  For: Weekdays SummerDesignDay,          !- Field 2
  Until: 06:00,                           !- Field 3
  30.0,                                   !- Field 4
  Until: 21:00,                           !- Field 5
  24.0,                                   !- Field 6
  Until: 24:00,                           !- Field 7
  30.0,                                   !- Field 8
  For: Saturday,                          !- Field 9
  Until: 06:00,                           !- Field 10
  30.0,                                   !- Field 11
  Until: 22:00,                           !- Field 12
  24.0,                                   !- Field 13
  Until: 24:00,                           !- Field 14
  30.0,                                   !- Field 15
  For WinterDesignDay,                    !- Field 16
  Until: 24:00,                           !- Field 17
  30.0,                                   !- Field 18
  For: Sunday Holidays AllOtherDays,      !- Field 19
  Until: 8:00,                            !- Field 20
  30.0,                                   !- Field 21
  Until: 19:00,                           !- Field 22
  24.0,                                   !- Field 23
  Until: 24:00,                           !- Field 24
  30.0;                                   !- Field 25

OS:Space,
  {dae48b9c-2a71-489e-8d71-c738a170ca7e}, !- Handle
  Front_Entry,                            !- Name
  {fd575f8d-00c2-4dbb-a8f7-9d626175d0b8}, !- Space Type Name
  ,                                       !- Default Construction Set Name
  ,                                       !- Default Schedule Set Name
  0,                                      !- Direction of Relative North {deg}
  25.135,                                 !- X Origin {m}
  0,                                      !- Y Origin {m}
  0,                                      !- Z Origin {m}
  {fde666f0-78c5-49ed-ac54-75b6a5876102}, !- Building Story Name
  {59f132a6-3bb6-4265-ae46-0d61c755f1c1}, !- Thermal Zone Name
  Yes,                                    !- Part of Total Floor Area
  {be9727f6-d692-4693-933b-afb4990c2b79}; !- Design Specification Outdoor Air Object Name

OS:ThermostatSetpoint:DualSetpoint,
  {5a560047-fcda-48a4-9384-56fbdb0b5ae3}, !- Handle
  {6fb532e4-9352-4445-b160-15f2142198dc}, !- Name
  {283c95fc-5020-4ff5-942f-36f20b68bd21}, !- Heating Setpoint Temperature Schedule Name
  {e1431fa5-2d65-4288-8fed-35e07f71b44e}; !- Cooling Setpoint Temperature Schedule Name

OS:Schedule:Compact,
  {e1431fa5-2d65-4288-8fed-35e07f71b44e}, !- Handle
  FRONT_ENTRY_COOLING,                    !- Name
  {fe47f78b-b301-4003-b25a-8d1c7b71f54f}, !- Schedule Type Limits Name
  Through: 12/31,                         !- Field 1
  For: AllDays,                           !- Field 2
  Until: 24:00,                           !- Field 3
  90;                                     !- Field 4

OS:DesignSpecification:OutdoorAir,
  {be9727f6-d692-4693-933b-afb4990c2b79}, !- Handle
  SZ DSOA Front_Entry,                    !- Name
  ,                                       !- Outdoor Air Method
  ,                                       !- Outdoor Air Flow per Person {m3/s-person}
  0,                                      !- Outdoor Air Flow per Floor Area {m3/s-m2}
  ,                                       !- Outdoor Air Flow Rate {m3/s}
  ,                                       !- Outdoor Air Flow Air Changes per Hour {1/hr}
  ;                                       !- Outdoor Air Flow Rate Fraction Schedule Name

OS:HeatBalanceAlgorithm,
  {571d3e49-dc22-4c49-8e6a-e89d101ee09d}, !- Handle
  ConductionTransferFunction,             !- Algorithm
  200;                                    !- Surface Temperature Upper Limit {F}

OS:SubSurface,
  {7ebea13a-3f19-4561-883f-6b9d0f48fc6d}, !- Handle
  Front_Retail_Wall_South_Glazing,        !- Name
  FixedWindow,                            !- Sub Surface Type
  {6554783a-6580-48af-833b-458b79941401}, !- Construction Name
  {554d15c7-b84c-464a-b6bb-a42fe826530e}, !- Surface Name
  ,                                       !- Outside Boundary Condition Object
  ,                                       !- View Factor to Ground
  ,                                       !- Shading Control Name
  ,                                       !- Frame and Divider Name
  1,                                      !- Multiplier
  ,                                       !- Number of Vertices
  0.05, 0, 2.66,                          !- X,Y,Z Vertex 1 {m}
  0.05, 0, 1.14,                          !- X,Y,Z Vertex 2 {m}
  25.085, 0, 1.14,                        !- X,Y,Z Vertex 3 {m}
  25.085, 0, 2.66;                        !- X,Y,Z Vertex 4 {m}

OS:Construction,
  {6554783a-6580-48af-833b-458b79941401}, !- Handle
  Window Non-res Fixed,                   !- Name
  ,                                       !- Surface Rendering Name
  {4cb987f6-e682-4458-9f8d-74119f694d1a}; !- Layer 1

OS:WindowMaterial:SimpleGlazingSystem,
  {4cb987f6-e682-4458-9f8d-74119f694d1a}, !- Handle
  NonRes Fixed Assembly Window,           !- Name
  3.23646,                                !- U-Factor {W/m2-K}
  0.39;                                   !- Solar Heat Gain Coefficient

OS:Surface,
  {554d15c7-b84c-464a-b6bb-a42fe826530e}, !- Handle
  Front_Retail_Wall_South,                !- Name
  Wall,                                   !- Surface Type
  {838a5051-d797-4307-a357-1d746658d4cd}, !- Construction Name
  {2048f76e-fc8b-4173-8572-16b11ea3925c}, !- Space Name
  Outdoors,                               !- Outside Boundary Condition
  ,                                       !- Outside Boundary Condition Object
  SunExposed,                             !- Sun Exposure
  WindExposed,                            !- Wind Exposure
  ,                                       !- View Factor to Ground
  ,                                       !- Number of Vertices
  0, 0, 6.096,                            !- X,Y,Z Vertex 1 {m}
  0, 0, 0,                                !- X,Y,Z Vertex 2 {m}
  25.135, 0, 0,                           !- X,Y,Z Vertex 3 {m}
  25.135, 0, 6.096;                       !- X,Y,Z Vertex 4 {m}

OS:Construction,
  {838a5051-d797-4307-a357-1d746658d4cd}, !- Handle
  Mass Non-res Ext Wall,                  !- Name
  ,                                       !- Surface Rendering Name
  {e8b58df0-c6f8-4dac-bb52-33fdb3cd97f5}, !- Layer 1
  {7c78982f-1271-4f20-9520-0c864981455e}, !- Layer 2
  {264bfa1c-5405-4a5a-b95b-a013adb9535d}, !- Layer 3
  {b1ab75ef-2522-4459-a2ae-bf45f3064f7a}; !- Layer 4

OS:Material,
  {e8b58df0-c6f8-4dac-bb52-33fdb3cd97f5}, !- Handle
  1IN Stucco,                             !- Name
  Smooth,                                 !- Roughness
  0.0253,                                 !- Thickness {m}
  0.6918,                                 !- Conductivity {W/m-K}
  1858,                                   !- Density {kg/m3}
  837,                                    !- Specific Heat {J/kg-K}
  0.9,                                    !- Thermal Absorptance
  0.92,                                   !- Solar Absorptance
  0.92;                                   !- Visible Absorptance

OS:Material,
  {7c78982f-1271-4f20-9520-0c864981455e}, !- Handle
  8IN CONCRETE HW,                        !- Name
  Rough,                                  !- Roughness
  0.2032,                                 !- Thickness {m}
  1.311,                                  !- Conductivity {W/m-K}
  2240,                                   !- Density {kg/m3}
  836.8,                                  !- Specific Heat {J/kg-K}
  0.9,                                    !- Thermal Absorptance
  0.7,                                    !- Solar Absorptance
  0.7;                                    !- Visible Absorptance

OS:Material,
  {264bfa1c-5405-4a5a-b95b-a013adb9535d}, !- Handle
  Mass NonRes Wall Insulation,            !- Name
  MediumRough,                            !- Roughness
  0.0495494599433393,                     !- Thickness {m}
  0.049,                                  !- Conductivity {W/m-K}
  265,                                    !- Density {kg/m3}
  836.8,                                  !- Specific Heat {J/kg-K}
  0.9,                                    !- Thermal Absorptance
  0.7,                                    !- Solar Absorptance
  0.7;                                    !- Visible Absorptance

OS:Space,
  {2048f76e-fc8b-4173-8572-16b11ea3925c}, !- Handle
  Front_Retail,                           !- Name
  {cd753681-3aab-4cdb-a726-eeb524b89d82}, !- Space Type Name
  ,                                       !- Default Construction Set Name
  ,                                       !- Default Schedule Set Name
  0,                                      !- Direction of Relative North {deg}
  29.135,                                 !- X Origin {m}
  0,                                      !- Y Origin {m}
  0,                                      !- Z Origin {m}
  {fde666f0-78c5-49ed-ac54-75b6a5876102}, !- Building Story Name
  {59f132a6-3bb6-4265-ae46-0d61c755f1c1}, !- Thermal Zone Name
  Yes,                                    !- Part of Total Floor Area
  {39bcbe4f-6e8d-48e7-b745-b61ad3038d72}; !- Design Specification Outdoor Air Object Name

OS:ThermostatSetpoint:DualSetpoint,
  {054db786-c4f0-46c8-be5b-b7e05509b18c}, !- Handle
  {16ed9d35-2948-45d4-b30f-6ea4ad5c8d75}, !- Name
  {283c95fc-5020-4ff5-942f-36f20b68bd21}, !- Heating Setpoint Temperature Schedule Name
  {029ed5e4-b079-40c2-b0f7-11153f4aea7c}; !- Cooling Setpoint Temperature Schedule Name

OS:Lights:Definition,
  {f092a42c-aa19-49a5-b570-bc145d0560b2}, !- Handle
  Point_Of_Sale_Lights Definition,        !- Name
  Watts/Area,                             !- Design Level Calculation Method
  ,                                       !- Lighting Level {W}
  18.29,                                  !- Watts per Space Floor Area {W/m2}
  ,                                       !- Watts per Person {W/person}
  0.7,                                    !- Fraction Radiant
  0.2,                                    !- Fraction Visible
  0,                                      !- Return Air Fraction
  No;                                     !- Return Air Fraction Calculated from Plenum Temperature

OS:Lights,
  {adfe74ad-ccae-4258-a27b-7824b62526b8}, !- Handle
  Point_Of_Sale_Lights,                   !- Name
  {f092a42c-aa19-49a5-b570-bc145d0560b2}, !- Lights Definition Name
  {e612857f-ca94-44cb-9bcd-d102d0d07bfe}, !- Space or SpaceType Name
  {4537ebc4-59f3-4478-8711-b5a9fb8af4d0}, !- Schedule Name
  1,                                      !- Fraction Replaceable
  ,                                       !- Multiplier
  General;                                !- End-Use Subcategory

OS:Space,
  {e612857f-ca94-44cb-9bcd-d102d0d07bfe}, !- Handle
  Point_Of_Sale,                          !- Name
  {cd753681-3aab-4cdb-a726-eeb524b89d82}, !- Space Type Name
  ,                                       !- Default Construction Set Name
  ,                                       !- Default Schedule Set Name
  0,                                      !- Direction of Relative North {deg}
  0,                                      !- X Origin {m}
  0,                                      !- Y Origin {m}
  0,                                      !- Z Origin {m}
  {fde666f0-78c5-49ed-ac54-75b6a5876102}, !- Building Story Name
  {59f132a6-3bb6-4265-ae46-0d61c755f1c1}, !- Thermal Zone Name
  Yes,                                    !- Part of Total Floor Area
  {0ba42040-b877-49af-b523-f1520eec715f}; !- Design Specification Outdoor Air Object Name

OS:ThermostatSetpoint:DualSetpoint,
  {8c89a3bb-e4e7-415d-9af4-7fc0c71a1bd0}, !- Handle
  {b08c095c-944e-4c9e-83db-69d5e14a7081}, !- Name
  {283c95fc-5020-4ff5-942f-36f20b68bd21}, !- Heating Setpoint Temperature Schedule Name
  {029ed5e4-b079-40c2-b0f7-11153f4aea7c}; !- Cooling Setpoint Temperature Schedule Name

OS:Schedule:Compact,
  {4537ebc4-59f3-4478-8711-b5a9fb8af4d0}, !- Handle
  BLDG_LIGHT_SCH,                         !- Name
  {a8aa952c-ae57-4573-a348-1d7570215666}, !- Schedule Type Limits Name
  Through: 12/31,                         !- Field 1
  For: Weekdays,                          !- Field 2
  Until: 07:00,                           !- Field 3
  0.05,                                   !- Field 4
  Until: 08:00,                           !- Field 5
  0.2,                                    !- Field 6
  Until: 09:00,                           !- Field 7
  0.5,                                    !- Field 8
  Until: 18:00,                           !- Field 9
  0.9,                                    !- Field 10
  Until: 20:00,                           !- Field 11
  0.6,                                    !- Field 12
  Until: 21:00,                           !- Field 13
  0.5,                                    !- Field 14
  Until: 22:00,                           !- Field 15
  0.2,                                    !- Field 16
  Until: 24:00,                           !- Field 17
  0.05,                                   !- Field 18
  For: Saturday,                          !- Field 19
  Until: 07:00,                           !- Field 20
  0.05,                                   !- Field 21
  Until: 08:00,                           !- Field 22
  0.1,                                    !- Field 23
  Until: 09:00,                           !- Field 24
  0.3,                                    !- Field 25
  Until: 10:00,                           !- Field 26
  0.6,                                    !- Field 27
  Until: 18:00,                           !- Field 28
  0.9,                                    !- Field 29
  Until: 19:00,                           !- Field 30
  0.5,                                    !- Field 31
  Until: 21:00,                           !- Field 32
  0.3,                                    !- Field 33
  Until: 22:00,                           !- Field 34
  0.1,                                    !- Field 35
  Until: 24:00,                           !- Field 36
  0.05,                                   !- Field 37
  For: SummerDesignDay,                   !- Field 38
  Until: 24:00,                           !- Field 39
  1.0,                                    !- Field 40
  For: WinterDesignDay,                   !- Field 41
  Until: 24:00,                           !- Field 42
  0.0,                                    !- Field 43
  For: AllOtherDays,                      !- Field 44
  Until: 08:00,                           !- Field 45
  0.05,                                   !- Field 46
  Until: 10:00,                           !- Field 47
  0.1,                                    !- Field 48
  Until: 12:00,                           !- Field 49
  0.4,                                    !- Field 50
  Until: 17:00,                           !- Field 51
  0.6,                                    !- Field 52
  Until: 18:00,                           !- Field 53
  0.4,                                    !- Field 54
  Until: 19:00,                           !- Field 55
  0.2,                                    !- Field 56
  Until: 24:00,                           !- Field 57
  0.05;                                   !- Field 58

OS:ScheduleTypeLimits,
  {a8aa952c-ae57-4573-a348-1d7570215666}, !- Handle
  Fraction,                               !- Name
  0,                                      !- Lower Limit Value {BasedOnField A4}
  1,                                      !- Upper Limit Value {BasedOnField A4}
  CONTINUOUS;                             !- Numeric Type

OS:Surface,
  {5f51c395-1a29-4456-9759-748057a6b82d}, !- Handle
  Front_Entry_Wall_East,                  !- Name
  Wall,                                   !- Surface Type
  {287ec284-29aa-4f65-8dab-ec993d70af08}, !- Construction Name
  {dae48b9c-2a71-489e-8d71-c738a170ca7e}, !- Space Name
  Surface,                                !- Outside Boundary Condition
  {d34ade8e-e9f3-4324-9456-daa5860462db}, !- Outside Boundary Condition Object
  NoSun,                                  !- Sun Exposure
  NoWind,                                 !- Wind Exposure
  ,                                       !- View Factor to Ground
  ,                                       !- Number of Vertices
  4, 0, 6.096,                            !- X,Y,Z Vertex 1 {m}
  4, 0, 0,                                !- X,Y,Z Vertex 2 {m}
  4, 3, 0,                                !- X,Y,Z Vertex 3 {m}
  4, 3, 6.096;                            !- X,Y,Z Vertex 4 {m}

OS:Meter,
  {3996b236-75d4-42ee-bd61-88d6ed9e91ab}, !- Handle
  Cooling:Electricity,                    !- Name
  hourly,                                 !- Reporting Frequency
  False,                                  !- Meter File Only
  False;                                  !- Cumulative

OS:Material,
  {19ff0ee8-319f-4040-80a2-419e72588687}, !- Handle
  Metal Siding,                           !- Name
  Smooth,                                 !- Roughness
  0.0015,                                 !- Thickness {m}
  44.96,                                  !- Conductivity {W/m-K}
  7688.86,                                !- Density {kg/m3}
  410,                                    !- Specific Heat {J/kg-K}
  0.9,                                    !- Thermal Absorptance
  0.2,                                    !- Solar Absorptance
  0.2;                                    !- Visible Absorptance

OS:Lights:Definition,
  {a4bb532f-a12c-4195-a2f5-020bf0313818}, !- Handle
  Core_Retail_Lights Definition,          !- Name
  Watts/Area,                             !- Design Level Calculation Method
  ,                                       !- Lighting Level {W}
  18.29,                                  !- Watts per Space Floor Area {W/m2}
  ,                                       !- Watts per Person {W/person}
  0.7,                                    !- Fraction Radiant
  0.2,                                    !- Fraction Visible
  0,                                      !- Return Air Fraction
  No;                                     !- Return Air Fraction Calculated from Plenum Temperature

OS:Lights,
  {2fa96331-4c1f-4d2c-af45-258e3bec30d0}, !- Handle
  Core_Retail_Lights,                     !- Name
  {a4bb532f-a12c-4195-a2f5-020bf0313818}, !- Lights Definition Name
  {46e2ab63-d434-4aed-a92e-f61162802e0c}, !- Space or SpaceType Name
  {4537ebc4-59f3-4478-8711-b5a9fb8af4d0}, !- Schedule Name
  1,                                      !- Fraction Replaceable
  ,                                       !- Multiplier
  General;                                !- End-Use Subcategory

OS:Space,
  {46e2ab63-d434-4aed-a92e-f61162802e0c}, !- Handle
  Core_Retail,                            !- Name
  {cd753681-3aab-4cdb-a726-eeb524b89d82}, !- Space Type Name
  ,                                       !- Default Construction Set Name
  ,                                       !- Default Schedule Set Name
  0,                                      !- Direction of Relative North {deg}
  0,                                      !- X Origin {m}
  6,                                      !- Y Origin {m}
  0,                                      !- Z Origin {m}
  {fde666f0-78c5-49ed-ac54-75b6a5876102}, !- Building Story Name
  {3cb3e5c7-d5ec-4f19-bcee-d1d4fe773103}, !- Thermal Zone Name
  Yes,                                    !- Part of Total Floor Area
  {73893ad3-f5fc-4865-baf8-b81af777089b}; !- Design Specification Outdoor Air Object Name

OS:ThermostatSetpoint:DualSetpoint,
  {d7808d8a-6beb-41a8-8b5f-98027022563f}, !- Handle
  {6f75d84a-fdeb-458a-998e-6d4e55e51c5e}, !- Name
  {283c95fc-5020-4ff5-942f-36f20b68bd21}, !- Heating Setpoint Temperature Schedule Name
  {029ed5e4-b079-40c2-b0f7-11153f4aea7c}; !- Cooling Setpoint Temperature Schedule Name

OS:InternalMass:Definition,
  {82538ae8-e96d-4711-a0f2-248d690d0395}, !- Handle
  Front_Retail Internal Mass Definition,  !- Name
  {e75f4c59-6b52-4a85-8246-376563028766}, !- Construction Name
  SurfaceArea,                            !- Design Level Calculation Method
  301.62,                                 !- Surface Area {m2}
  ,                                       !- Surface Area per Space Floor Area {dimensionless}
  ;                                       !- Surface Area per Person {m2/person}

OS:InternalMass,
  {17861310-94e9-4758-9a4c-f480e2bc1cf3}, !- Handle
  Front_Retail Internal Mass,             !- Name
  {82538ae8-e96d-4711-a0f2-248d690d0395}, !- Internal Mass Definition Name
  {2048f76e-fc8b-4173-8572-16b11ea3925c}; !- Space or SpaceType Name

OS:Surface,
  {e3de6294-8686-4db9-83fd-d7fd5cb837f9}, !- Handle
  Core_Retail_Wall_South_2,               !- Name
  Wall,                                   !- Surface Type
  {287ec284-29aa-4f65-8dab-ec993d70af08}, !- Construction Name
  {46e2ab63-d434-4aed-a92e-f61162802e0c}, !- Space Name
  Surface,                                !- Outside Boundary Condition
  {7233298b-8d02-400e-b005-cf7fd409a0c9}, !- Outside Boundary Condition Object
  NoSun,                                  !- Sun Exposure
  NoWind,                                 !- Wind Exposure
  ,                                       !- View Factor to Ground
  ,                                       !- Number of Vertices
  25.135, -3, 6.096,                      !- X,Y,Z Vertex 1 {m}
  25.135, -3, 0,                          !- X,Y,Z Vertex 2 {m}
  29.135, -3, 0,                          !- X,Y,Z Vertex 3 {m}
  29.135, -3, 6.096;                      !- X,Y,Z Vertex 4 {m}

OS:ElectricEquipment:Definition,
  {992f9b3f-18fb-4f4d-a18f-718a6b87e408}, !- Handle
  Core_Retail_MiscPlug_Equip Definition,  !- Name
  Watts/Area,                             !- Design Level Calculation Method
  ,                                       !- Design Level {W}
  3.23,                                   !- Watts per Space Floor Area {W/m2}
  ,                                       !- Watts per Person {W/person}
  0,                                      !- Fraction Latent