
OS:Version,
  {e82a3f9c-db9d-4586-a782-4a499fdd5a0e}, !- Handle
  1.8.5;                                  !- Version Identifier

OS:Site,
  {ab5c6afe-03e6-46a3-920e-f86cc6425926}, !- Handle
  USA IL-CHICAGO-OHARE,                   !- Name
  41.77,                                  !- Latitude {deg}
  -87.75,                                 !- Longitude {deg}
  -6,                                     !- Time Zone {hr}
  190,                                    !- Elevation {m}
  City;                                   !- Terrain

OS:SimulationControl,
  {1e16d728-ad7a-4313-9fab-8118c84cdcca}, !- Handle
  Yes,                                    !- Do Zone Sizing Calculation
  Yes,                                    !- Do System Sizing Calculation
  Yes,                                    !- Do Plant Sizing Calculation
  No,                                     !- Run Simulation for Sizing Periods
  Yes,                                    !- Run Simulation for Weather File Run Periods
  0.04,                                   !- Loads Convergence Tolerance Value
  0.2,                                    !- Temperature Convergence Tolerance Value {deltaC}
  FullInteriorAndExterior,                !- Solar Distribution
  25,                                     !- Maximum Number of Warmup Days
  6;                                      !- Minimum Number of Warmup Days

OS:Curve:Biquadratic,
  {9df4cd45-4f34-4432-b23c-0c02f7d4c93c}, !- Handle
  Measured_LowSpeedCoolCapLSFT,           !- Name
  0.4136,                                 !- Coefficient1 Constant
  0.03105,                                !- Coefficient2 x
  0,                                      !- Coefficient3 x**2
  0.006952,                               !- Coefficient4 y
  -0.0002128,                             !- Coefficient5 y**2
  0,                                      !- Coefficient6 x*y
  11.1,                                   !- Minimum Value of x {BasedOnField A2}
  29.4,                                   !- Maximum Value of x {BasedOnField A2}
  10,                                     !- Minimum Value of y {BasedOnField A3}
  50.3;                                   !- Maximum Value of y {BasedOnField A3}

OS:ScheduleTypeLimits,
  {5e9648f3-d97f-4dbc-9986-17cfa99f1707}, !- Handle
  {a406498d-49c1-4e6b-ac5c-dc18d4f7b0cb}; !- Name

OS:Meter,
  {2ec29731-1004-43f1-905a-595c105d476d}, !- Handle
  Refrigeration:Electricity,              !- Name
  hourly,                                 !- Reporting Frequency
  False,                                  !- Meter File Only
  False;                                  !- Cumulative

OS:Material,
  {caee3008-e9f5-4532-aa28-850598286114}, !- Handle
  8IN CONCRETE HW,                        !- Name
  Rough,                                  !- Roughness
  0.2032,                                 !- Thickness {m}
  1.311,                                  !- Conductivity {W/m-K}
  2240,                                   !- Density {kg/m3}
  836.8,                                  !- Specific Heat {J/kg-K}
  0.9,                                    !- Thermal Absorptance
  0.7,                                    !- Solar Absorptance
  0.7;                                    !- Visible Absorptance

OS:Construction,
  {4486b405-601e-40c6-9628-98a068d0f036}, !- Handle
  Mass Non-res Ext Wall,                  !- Name
  ,                                       !- Surface Rendering Name
  {d56beb75-33f3-4b46-a36c-0bcf1040544a}, !- Layer 1
  {caee3008-e9f5-4532-aa28-850598286114}, !- Layer 2
  {e9de9484-b9e2-4f2f-af90-099ec4c9ddc6}, !- Layer 3
  {0e7cd394-7c9f-4283-9f29-b519dd29a4a9}; !- Layer 4

OS:Material,
  {d56beb75-33f3-4b46-a36c-0bcf1040544a}, !- Handle
  1IN Stucco,                             !- Name
  Smooth,                                 !- Roughness
  0.0253,                                 !- Thickness {m}
  0.6918,                                 !- Conductivity {W/m-K}
  1858,                                   !- Density {kg/m3}
  837,                                    !- Specific Heat {J/kg-K}
  0.9,                                    !- Thermal Absorptance
  0.92,                                   !- Solar Absorptance
  0.92;                                   !- Visible Absorptance

OS:Material,
  {e9de9484-b9e2-4f2f-af90-099ec4c9ddc6}, !- Handle
  Mass NonRes Wall Insulation,            !- Name
  MediumRough,                            !- Roughness
  0.0495494599433393,                     !- Thickness {m}
  0.049,                                  !- Conductivity {W/m-K}
  265,                                    !- Density {kg/m3}
  836.8,                                  !- Specific Heat {J/kg-K}
  0.9,                                    !- Thermal Absorptance
  0.7,                                    !- Solar Absorptance
  0.7;                                    !- Visible Absorptance

OS:Material,
  {0e7cd394-7c9f-4283-9f29-b519dd29a4a9}, !- Handle
  1/2IN Gypsum,                           !- Name
  Smooth,                                 !- Roughness
  0.0127,                                 !- Thickness {m}
  0.16,                                   !- Conductivity {W/m-K}
  784.9,                                  !- Density {kg/m3}
  830,                                    !- Specific Heat {J/kg-K}
  0.9,                                    !- Thermal Absorptance
  0.92,                                   !- Solar Absorptance
  0.92;                                   !- Visible Absorptance

OS:Surface,
  {1712c220-4f4d-403a-ad8e-825fbcad4ce0}, !- Handle
  Back_Space_Wall_East,                   !- Name
  Wall,                                   !- Surface Type
  {4486b405-601e-40c6-9628-98a068d0f036}, !- Construction Name
  {aa427d08-45f7-48ab-81e3-ae48956dbce1}, !- Space Name
  Outdoors,                               !- Outside Boundary Condition
  ,                                       !- Outside Boundary Condition Object
  SunExposed,                             !- Sun Exposure
  WindExposed,                            !- Wind Exposure
  ,                                       !- View Factor to Ground
  ,                                       !- Number of Vertices
  54.27, 0, 6.096,                        !- X,Y,Z Vertex 1 {m}
  54.27, 0, 0,                            !- X,Y,Z Vertex 2 {m}
  54.27, 7, 0,                            !- X,Y,Z Vertex 3 {m}
  54.27, 7, 6.096;                        !- X,Y,Z Vertex 4 {m}

OS:Space,
  {aa427d08-45f7-48ab-81e3-ae48956dbce1}, !- Handle
  Back_Space,                             !- Name
  {d8fad746-3e50-46ca-9645-4489e4cc5042}, !- Space Type Name
  ,                                       !- Default Construction Set Name
  ,                                       !- Default Schedule Set Name
  0,                                      !- Direction of Relative North {deg}
  0,                                      !- X Origin {m}
  35.27,                                  !- Y Origin {m}
  0,                                      !- Z Origin {m}
  {98af4343-88a8-4f2b-8081-df0cf35d134c}, !- Building Story Name
  {aefd7f52-8852-42ea-abe8-a73758262d6f}, !- Thermal Zone Name
  Yes,                                    !- Part of Total Floor Area
  {3c30659f-29d2-424c-ad43-45fc5603f844}; !- Design Specification Outdoor Air Object Name

OS:ThermostatSetpoint:DualSetpoint,
  {4aef7351-f234-40d4-8ac4-00c7e6d175c8}, !- Handle
  {9651ef90-4f91-4f91-9dcf-b3dfeb7bcd55}, !- Name
  {85c243b6-7efb-4410-b4b5-d197d68013f8}, !- Heating Setpoint Temperature Schedule Name
  {54474bd6-51c2-4793-ba69-a0c5ec4377db}; !- Cooling Setpoint Temperature Schedule Name

OS:Schedule:Compact,
  {85c243b6-7efb-4410-b4b5-d197d68013f8}, !- Handle
  HTGSETP_SCH,                            !- Name
  {40301c22-0356-4b34-9156-78570549e0c0}, !- Schedule Type Limits Name
  Through: 12/31,                         !- Field 1
  For: Weekdays,                          !- Field 2
  Until: 06:00,                           !- Field 3
  15.6,                                   !- Field 4
  Until: 21:00,                           !- Field 5
  21.0,                                   !- Field 6
  Until: 24:00,                           !- Field 7
  15.6,                                   !- Field 8
  For SummerDesignDay,                    !- Field 9
  Until: 24:00,                           !- Field 10
  15.6,                                   !- Field 11
  For WinterDesignDay,                    !- Field 12
  Until: 24:00,                           !- Field 13
  21.0,                                   !- Field 14
  For: Saturday,                          !- Field 15
  Until: 06:00,                           !- Field 16
  15.6,                                   !- Field 17
  Until: 22:00,                           !- Field 18
  21.0,                                   !- Field 19
  Until: 24:00,                           !- Field 20
  15.6,                                   !- Field 21
  For: Sunday Holidays AllOtherDays,      !- Field 22
  Until:  8:00,                           !- Field 23
  15.6,                                   !- Field 24
  Until: 19:00,                           !- Field 25
  21.,                                    !- Field 26
  Until: 24:00,                           !- Field 27
  15.6;                                   !- Field 28

OS:ScheduleTypeLimits,
  {40301c22-0356-4b34-9156-78570549e0c0}, !- Handle
  Temperature,                            !- Name
  -60,                                    !- Lower Limit Value {BasedOnField A4}
  200,                                    !- Upper Limit Value {BasedOnField A4}
  CONTINUOUS,                             !- Numeric Type
  Temperature;                            !- Unit Type

OS:Schedule:Compact,
  {54474bd6-51c2-4793-ba69-a0c5ec4377db}, !- Handle
  CLGSETP_SCH,                            !- Name
  {40301c22-0356-4b34-9156-78570549e0c0}, !- Schedule Type Limits Name
  Through: 12/31,                         !- Field 1
  For: Weekdays SummerDesignDay,          !- Field 2
  Until: 06:00,                           !- Field 3
  30.0,                                   !- Field 4
  Until: 21:00,                           !- Field 5
  24.0,                                   !- Field 6
  Until: 24:00,                           !- Field 7
  30.0,                                   !- Field 8
  For: Saturday,                          !- Field 9
  Until: 06:00,                           !- Field 10
  30.0,                                   !- Field 11
  Until: 22:00,                           !- Field 12
  24.0,                                   !- Field 13
  Until: 24:00,                           !- Field 14
  30.0,                                   !- Field 15
  For WinterDesignDay,                    !- Field 16
  Until: 24:00,                           !- Field 17
  30.0,                                   !- Field 18
  For: Sunday Holidays AllOtherDays,      !- Field 19
  Until: 8:00,                            !- Field 20
  30.0,                                   !- Field 21
  Until: 19:00,                           !- Field 22
  24.0,                                   !- Field 23
  Until: 24:00,                           !- Field 24
  30.0;                                   !- Field 25

OS:Space,
  {ede81c01-e030-476c-bb89-01b120ed3073}, !- Handle
  Point_Of_Sale,                          !- Name
  {996c17b3-8ad5-49bc-bf9a-d84ef9064c75}, !- Space Type Name
  ,                                       !- Default Construction Set Name
  ,                                       !- Default Schedule Set Name
  0,                                      !- Direction of Relative North {deg}
  0,                                      !- X Origin {m}
  0,                                      !- Y Origin {m}
  0,                                      !- Z Origin {m}
  {98af4343-88a8-4f2b-8081-df0cf35d134c}, !- Building Story Name
  {5856b6d2-9440-42ac-9fc8-794dd58a8d9e}, !- Thermal Zone Name
  Yes,                                    !- Part of Total Floor Area
  {ccea885f-c863-4bbd-9cf7-683719416c34}; !- Design Specification Outdoor Air Object Name

OS:ThermostatSetpoint:DualSetpoint,
  {7cbb9666-dc7d-458b-a66d-5d6196a0b20f}, !- Handle
  {0907bd81-ee8e-46f0-8cff-ed56552a721b}, !- Name
  {85c243b6-7efb-4410-b4b5-d197d68013f8}, !- Heating Setpoint Temperature Schedule Name
  {54474bd6-51c2-4793-ba69-a0c5ec4377db}; !- Cooling Setpoint Temperature Schedule Name

OS:DesignSpecification:OutdoorAir,
  {ccea885f-c863-4bbd-9cf7-683719416c34}, !- Handle
  SZ DSOA Point_Of_Sale,                  !- Name
  ,                                       !- Outdoor Air Method
  ,                                       !- Outdoor Air Flow per Person {m3/s-person}
  0.0015,                                 !- Outdoor Air Flow per Floor Area {m3/s-m2}
  ,                                       !- Outdoor Air Flow Rate {m3/s}
  ,                                       !- Outdoor Air Flow Air Changes per Hour {1/hr}
  ;                                       !- Outdoor Air Flow Rate Fraction Schedule Name

OS:Sizing:Parameters,
  {e33b3b10-1716-4bb8-aa98-280951b63b3f}, !- Handle
  1.2,                                    !- Heating Sizing Factor
  1.2,                                    !- Cooling Sizing Factor
  6;                                      !- Timesteps in Averaging Window

OS:Material,
  {3dd47411-65f3-4e82-9b36-73565493e3e3}, !- Handle
  IEAD NonRes Roof Insulation,            !- Name
  MediumRough,                            !- Roughness
  0.127338688569477,                      !- Thickness {m}
  0.049,                                  !- Conductivity {W/m-K}
  265,                                    !- Density {kg/m3}
  836.8,                                  !- Specific Heat {J/kg-K}
  0.9,                                    !- Thermal Absorptance
  0.7,                                    !- Solar Absorptance
  0.7;                                    !- Visible Absorptance

OS:Construction,
  {3822ba91-720f-40b3-9208-122ee119d1e6}, !- Handle
  InteriorFurnishings,                    !- Name
  ,                                       !- Surface Rendering Name
  {9eb52d66-6fc8-4357-81a5-eacd587788ae}; !- Layer 1

OS:Material,
  {9eb52d66-6fc8-4357-81a5-eacd587788ae}, !- Handle
  Std Wood 6inch,                         !- Name
  MediumSmooth,                           !- Roughness
  0.15,                                   !- Thickness {m}
  0.12,                                   !- Conductivity {W/m-K}
  540,                                    !- Density {kg/m3}
  1210,                                   !- Specific Heat {J/kg-K}
  0.9,                                    !- Thermal Absorptance
  0.7,                                    !- Solar Absorptance
  0.7;                                    !- Visible Absorptance

OS:SpaceInfiltration:DesignFlowRate,
  {24cd0992-3005-457e-b588-4b2690886565}, !- Handle
  Front_Retail_Infiltration,              !- Name
  {762cd971-03f8-4c53-a15a-881da02c43fb}, !- Space or SpaceType Name
  {a3d0169c-b9e5-4a75-96bb-8cee3d608fe9}, !- Schedule Name
  Flow/ExteriorArea,                      !- Design Flow Rate Calculation Method
  ,                                       !- Design Flow Rate {m3/s}
  ,                                       !- Flow per Space Floor Area {m3/s-m2}
  0.000302,                               !- Flow per Exterior Surface Area {m3/s-m2}
  ,                                       !- Air Changes per Hour {1/hr}
  1,                                      !- Constant Term Coefficient
  0,                                      !- Temperature Term Coefficient
  0,                                      !- Velocity Term Coefficient
  0;                                      !- Velocity Squared Term Coefficient

OS:Space,
  {762cd971-03f8-4c53-a15a-881da02c43fb}, !- Handle
  Front_Retail,                           !- Name
  {996c17b3-8ad5-49bc-bf9a-d84ef9064c75}, !- Space Type Name
  ,                                       !- Default Construction Set Name
  ,                                       !- Default Schedule Set Name
  0,                                      !- Direction of Relative North {deg}
  29.135,                                 !- X Origin {m}
  0,                                      !- Y Origin {m}
  0,                                      !- Z Origin {m}
  {98af4343-88a8-4f2b-8081-df0cf35d134c}, !- Building Story Name
  {5856b6d2-9440-42ac-9fc8-794dd58a8d9e}, !- Thermal Zone Name
  Yes,                                    !- Part of Total Floor Area
  {579175c4-8ac3-45ad-821d-602c8583a0ad}; !- Design Specification Outdoor Air Object Name

OS:ThermostatSetpoint:DualSetpoint,
  {de62e80d-709f-447d-aee1-825d132a0c2e}, !- Handle
  {bdba91d2-789a-4d84-a34d-3bdfd11488bd}, !- Name
  {85c243b6-7efb-4410-b4b5-d197d68013f8}, !- Heating Setpoint Temperature Schedule Name
  {54474bd6-51c2-4793-ba69-a0c5ec4377db}; !- Cooling Setpoint Temperature Schedule Name

OS:Schedule:Compact,
  {a3d0169c-b9e5-4a75-96bb-8cee3d608fe9}, !- Handle
  INFIL_HALF_ON_SCH,                      !- Name
  {4f66f092-51ff-4adf-9d4c-78c946cec32a}, !- Schedule Type Limits Name
  Through: 12/31,                         !- Field 1
  For: Weekdays SummerDesignDay,          !- Field 2
  Until: 06:00,                           !- Field 3
  1.0,                                    !- Field 4
  Until: 21:00,                           !- Field 5
  0.5,                                    !- Field 6
  Until: 24:00,                           !- Field 7
  1.0,                                    !- Field 8
  For: Saturday,                          !- Field 9
  Until: 06:00,                           !- Field 10
  1.0,                                    !- Field 11
  Until: 22:00,                           !- Field 12
  0.5,                                    !- Field 13
  Until: 24:00,                           !- Field 14
  1.0,                                    !- Field 15
  For: WinterDesignDay,                   !- Field 16
  Until: 24:00,                           !- Field 17
  1.0,                                    !- Field 18
  For: AllOtherDays,                      !- Field 19
  Until: 08:00,                           !- Field 20
  1.0,                                    !- Field 21
  Until: 17:00,                           !- Field 22
  0.5,                                    !- Field 23
  Until: 24:00,                           !- Field 24
  1.0;                                    !- Field 25

OS:ScheduleTypeLimits,
  {4f66f092-51ff-4adf-9d4c-78c946cec32a}, !- Handle
  Fraction,                               !- Name
  0,                                      !- Lower Limit Value {BasedOnField A4}
  1,                                      !- Upper Limit Value {BasedOnField A4}
  CONTINUOUS;                             !- Numeric Type

OS:SubSurface,
  {56215522-0aae-46fd-bfd7-1bfc304133c4}, !- Handle
  Front_Entry_Wall_South_Glazing,         !- Name
  FixedWindow,                            !- Sub Surface Type
  {428585a2-e295-4544-b00a-f8a8483c1dee}, !- Construction Name
  {27deeca7-eb53-422b-b95a-9c1bb37b4672}, !- Surface Name
  ,                                       !- Outside Boundary Condition Object
  ,                                       !- View Factor to Ground
  ,                                       !- Shading Control Name
  ,                                       !- Frame and Divider Name
  1,                                      !- Multiplier
  ,                                       !- Number of Vertices
  0.5, 0, 2.66,                           !- X,Y,Z Vertex 1 {m}
  0.5, 0, 0.05,                           !- X,Y,Z Vertex 2 {m}
  3.5, 0, 0.05,                           !- X,Y,Z Vertex 3 {m}
  3.5, 0, 2.66;                           !- X,Y,Z Vertex 4 {m}

OS:Construction,
  {428585a2-e295-4544-b00a-f8a8483c1dee}, !- Handle
  Window Non-res Fixed,                   !- Name
  ,                                       !- Surface Rendering Name
  {b108b12d-363e-414b-a45d-d65553af65ac}; !- Layer 1

OS:WindowMaterial:SimpleGlazingSystem,
  {b108b12d-363e-414b-a45d-d65553af65ac}, !- Handle
  NonRes Fixed Assembly Window,           !- Name
  3.23646,                                !- U-Factor {W/m2-K}
  0.39;                                   !- Solar Heat Gain Coefficient

OS:Surface,
  {27deeca7-eb53-422b-b95a-9c1bb37b4672}, !- Handle
  Front_Entry_Wall_South,                 !- Name
  Wall,                                   !- Surface Type
  {4486b405-601e-40c6-9628-98a068d0f036}, !- Construction Name
  {ee20b280-e68a-44f3-b92f-1b77664baf3c}, !- Space Name
  Outdoors,                               !- Outside Boundary Condition
  ,                                       !- Outside Boundary Condition Object
  SunExposed,                             !- Sun Exposure
  WindExposed,                            !- Wind Exposure
  ,                                       !- View Factor to Ground
  ,                                       !- Number of Vertices
  0, 0, 6.096,                            !- X,Y,Z Vertex 1 {m}
  0, 0, 0,                                !- X,Y,Z Vertex 2 {m}
  4, 0, 0,                                !- X,Y,Z Vertex 3 {m}
  4, 0, 6.096;                            !- X,Y,Z Vertex 4 {m}

OS:Space,
  {ee20b280-e68a-44f3-b92f-1b77664baf3c}, !- Handle
  Front_Entry,                            !- Name
  {84803244-07a4-4f7d-9edd-09ebc04688a7}, !- Space Type Name
  ,                                       !- Default Construction Set Name
  ,                                       !- Default Schedule Set Name
  0,                                      !- Direction of Relative North {deg}
  25.135,                                 !- X Origin {m}
  0,                                      !- Y Origin {m}
  0,                                      !- Z Origin {m}
  {98af4343-88a8-4f2b-8081-df0cf35d134c}, !- Building Story Name
  {5856b6d2-9440-42ac-9fc8-794dd58a8d9e}, !- Thermal Zone Name
  Yes,                                    !- Part of Total Floor Area
  {a0e6a622-b88a-447a-a7bd-c0ec641cd764}; !- Design Specification Outdoor Air Object Name

OS:ThermostatSetpoint:DualSetpoint,
  {b30131bc-d92a-4647-964c-a207cb3f8f23}, !- Handle
  {0ebb7d0a-7bb5-46c7-9c01-63fd721b4fa9}, !- Name
  {85c243b6-7efb-4410-b4b5-d197d68013f8}, !- Heating Setpoint Temperature Schedule Name
  {c5ef28f3-3be7-4aad-956d-0b78d8d8263b}; !- Cooling Setpoint Temperature Schedule Name

OS:Schedule:Compact,
  {c5ef28f3-3be7-4aad-956d-0b78d8d8263b}, !- Handle
  FRONT_ENTRY_COOLING,                    !- Name
  {40301c22-0356-4b34-9156-78570549e0c0}, !- Schedule Type Limits Name
  Through: 12/31,                         !- Field 1
  For: AllDays,                           !- Field 2
  Until: 24:00,                           !- Field 3
  90;                                     !- Field 4

OS:Surface,
  {bd65742f-432c-4957-bee3-8e887bbe6f55}, !- Handle
  Core_Retail_Wall_South_3,               !- Name
  Wall,                                   !- Surface Type
  {6dabb8d1-a3b2-41ec-85e6-7266bc6d8dae}, !- Construction Name
  {00d79fc1-f529-4ab8-a631-9e0b27da76cb}, !- Space Name
  Surface,                                !- Outside Boundary Condition
  {3cc509fe-e804-4f89-af4b-df80c013c7b0}, !- Outside Boundary Condition Object
  NoSun,                                  !- Sun Exposure
  NoWind,                                 !- Wind Exposure
  ,                                       !- View Factor to Ground
  ,                                       !- Number of Vertices
  29.135, 0, 6.096,                       !- X,Y,Z Vertex 1 {m}
  29.135, 0, 0,                           !- X,Y,Z Vertex 2 {m}
  54.27, 0, 0,                            !- X,Y,Z Vertex 3 {m}
  54.27, 0, 6.096;                        !- X,Y,Z Vertex 4 {m}

OS:Construction,
  {6dabb8d1-a3b2-41ec-85e6-7266bc6d8dae}, !- Handle
  int-walls,                              !- Name
  ,                                       !- Surface Rendering Name
  {0e7cd394-7c9f-4283-9f29-b519dd29a4a9}, !- Layer 1
  {0e7cd394-7c9f-4283-9f29-b519dd29a4a9}; !- Layer 2

OS:Space,
  {00d79fc1-f529-4ab8-a631-9e0b27da76cb}, !- Handle
  Core_Retail,                            !- Name
  {996c17b3-8ad5-49bc-bf9a-d84ef9064c75}, !- Space Type Name
  ,                                       !- Default Construction Set Name
  ,                                       !- Default Schedule Set Name
  0,                                      !- Direction of Relative North {deg}
  0,                                      !- X Origin {m}
  6,                                      !- Y Origin {m}
  0,                                      !- Z Origin {m}
  {98af4343-88a8-4f2b-8081-df0cf35d134c}, !- Building Story Name
  {2f114347-7d95-4d24-b57c-78326718aa33}, !- Thermal Zone Name
  Yes,                                    !- Part of Total Floor Area
  {797632e6-a54f-4922-96a0-03e745c503ca}; !- Design Specification Outdoor Air Object Name

OS:ThermostatSetpoint:DualSetpoint,
  {78732bcd-1907-48b4-b4bb-065e46ac7952}, !- Handle
  {e393685c-91d1-4f87-b263-1107e56d6334}, !- Name
  {85c243b6-7efb-4410-b4b5-d197d68013f8}, !- Heating Setpoint Temperature Schedule Name
  {54474bd6-51c2-4793-ba69-a0c5ec4377db}; !- Cooling Setpoint Temperature Schedule Name

OS:Surface,
  {569db1e3-2d0d-40cb-83bc-362efaa8c17c}, !- Handle
  Core_Retail_Wall_East_2,                !- Name
  Wall,                                   !- Surface Type
  {4486b405-601e-40c6-9628-98a068d0f036}, !- Construction Name
  {00d79fc1-f529-4ab8-a631-9e0b27da76cb}, !- Space Name
  Outdoors,                               !- Outside Boundary Condition
  ,                                       !- Outside Boundary Condition Object
  SunExposed,                             !- Sun Exposure
  WindExposed,                            !- Wind Exposure
  ,                                       !- View Factor to Ground
  ,                                       !- Number of Vertices
  54.27, 0, 6.096,                        !- X,Y,Z Vertex 1 {m}
  54.27, 0, 0,                            !- X,Y,Z Vertex 2 {m}
  54.27, 29.27, 0,                        !- X,Y,Z Vertex 3 {m}
  54.27, 29.27, 6.096;                    !- X,Y,Z Vertex 4 {m}

OS:People:Definition,
  {e37990bb-fda5-4120-bad8-15e7b4aa3586}, !- Handle
  Front_Retail People Definition,         !- Name
  Area/Person,                            !- Number of People Calculation Method
  ,                                       !- Number of People {people}
  ,                                       !- People per Space Floor Area {person/m2}
  6.19,                                   !- Space Floor Area per Person {m2/person}
  0.3,                                    !- Fraction Radiant
  ,                                       !- Sensible Heat Fraction
  ,                                       !- Carbon Dioxide Generation Rate {m3/s-W}
  No,                                     !- Enable ASHRAE 55 Comfort Warnings
  ZoneAveraged;                           !- Mean Radiant Temperature Calculation Type

OS:People,
  {dccf53dc-8f70-49dc-b684-f89918f86a5f}, !- Handle
  Front_Retail People,                    !- Name
  {e37990bb-fda5-4120-bad8-15e7b4aa3586}, !- People Definition Name
  {762cd971-03f8-4c53-a15a-881da02c43fb}, !- Space or SpaceType Name
  {8118949b-1849-49df-a674-05ca4e5d00da}, !- Number of People Schedule Name
  {170251dc-8352-4322-b180-13b66face729}, !- Activity Level Schedule Name
  ,                                       !- Surface Name/Angle Factor List Name
  {953c6f23-f4c0-48d1-8e76-683524628687}; !- Work Efficiency Schedule Name

OS:Schedule:Compact,
  {8118949b-1849-49df-a674-05ca4e5d00da}, !- Handle
  BLDG_OCC_SCH,                           !- Name
  {4f66f092-51ff-4adf-9d4c-78c946cec32a}, !- Schedule Type Limits Name
  Through: 12/31,                         !- Field 1
  For: Weekdays,                          !- Field 2
  Until: 07:00,                           !- Field 3
  0.0,                                    !- Field 4
  Until: 08:00,                           !- Field 5
  0.1,                                    !- Field 6
  Until: 09:00,                           !- Field 7
  0.2,                                    !- Field 8
  Until: 11:00,                           !- Field 9
  0.5,                                    !- Field 10
  Until: 15:00,                           !- Field 11
  0.7,                                    !- Field 12
  Until: 16:00,                           !- Field 13
  0.8,                                    !- Field 14
  Until: 17:00,                           !- Field 15
  0.7,                                    !- Field 16
  Until: 19:00,                           !- Field 17
  0.5,                                    !- Field 18
  Until: 21:00,                           !- Field 19
  0.3,                                    !- Field 20
  Until: 24:00,                           !- Field 21
  0.0,                                    !- Field 22
  For: SummerDesignDay WinterDesignDay,   !- Field 23
  Until: 24:00,                           !- Field 24
  1.0,                                    !- Field 25
  For: Saturday,                          !- Field 26
  Until: 07:00,                           !- Field 27
  0.0,                                    !- Field 28
  Until: 08:00,                           !- Field 29
  0.1,                                    !- Field 30
  Until: 09:00,                           !- Field 31
  0.2,                                    !- Field 32
  Until: 10:00,                           !- Field 33
  0.5,                                    !- Field 34
  Until: 11:00,                           !- Field 35
  0.6,                                    !- Field 36
  Until: 17:00,                           !- Field 37
  0.8,                                    !- Field 38
  Until: 18:00,                           !- Field 39
  0.6,                                    !- Field 40
  Until: 21:00,                           !- Field 41