
OS:Version,
  {911aaf85-bf8b-42cd-81cc-98def102e153}, !- Handle
  1.8.5;                                  !- Version Identifier

OS:Site,
  {d98e7963-cc58-4647-9c5a-4bb5f8c7660a}, !- Handle
  USA IL-CHICAGO-OHARE,                   !- Name
  41.77,                                  !- Latitude {deg}
  -87.75,                                 !- Longitude {deg}
  -6,                                     !- Time Zone {hr}
  190,                                    !- Elevation {m}
  City;                                   !- Terrain

OS:SimulationControl,
  {819b9aaa-8deb-4f6b-acd7-1038f571af18}, !- Handle
  Yes,                                    !- Do Zone Sizing Calculation
  Yes,                                    !- Do System Sizing Calculation
  Yes,                                    !- Do Plant Sizing Calculation
  No,                                     !- Run Simulation for Sizing Periods
  Yes,                                    !- Run Simulation for Weather File Run Periods
  0.04,                                   !- Loads Convergence Tolerance Value
  0.2,                                    !- Temperature Convergence Tolerance Value {deltaC}
  FullInteriorAndExterior,                !- Solar Distribution
  25,                                     !- Maximum Number of Warmup Days
  6;                                      !- Minimum Number of Warmup Days

OS:SpaceInfiltration:DesignFlowRate,
  {b28423d6-e91e-4f96-a96d-2ec3a5c8b17f}, !- Handle
  SMstore1_Infiltration,                  !- Name
  {63fd0a8b-7373-4126-979b-e29f84be0e06}, !- Space or SpaceType Name
  {0dba371a-1a5a-4d1a-bf41-7d4b01cf3695}, !- Schedule Name
  Flow/ExteriorArea,                      !- Design Flow Rate Calculation Method
  ,                                       !- Design Flow Rate {m3/s}
  ,                                       !- Flow per Space Floor Area {m3/s-m2}
  0.000302,                               !- Flow per Exterior Surface Area {m3/s-m2}
  ,                                       !- Air Changes per Hour {1/hr}
  1,                                      !- Constant Term Coefficient
  0,                                      !- Temperature Term Coefficient
  0,                                      !- Velocity Term Coefficient
  0;                                      !- Velocity Squared Term Coefficient

OS:Space,
  {63fd0a8b-7373-4126-979b-e29f84be0e06}, !- Handle
  SMstore1,                               !- Name
  {91b52c75-262f-476f-bf6e-9f5eef0f8231}, !- Space Type Name
  ,                                       !- Default Construction Set Name
  ,                                       !- Default Schedule Set Name
  0,                                      !- Direction of Relative North {deg}
  0,                                      !- X Origin {m}
  0,                                      !- Y Origin {m}
  0,                                      !- Z Origin {m}
  {f8bb0252-53d3-4b96-a11b-ba76f27cc740}, !- Building Story Name
  {0484c3fb-b76b-498b-95f7-996539c0f8e7}, !- Thermal Zone Name
  Yes,                                    !- Part of Total Floor Area
  {698490cb-115c-4817-9be6-b15cc56bc954}; !- Design Specification Outdoor Air Object Name

OS:Schedule:Compact,
  {5006c82d-25ca-4b0c-a709-488821b1c06f}, !- Handle
  HTGSETP_SCH,                            !- Name
  {06919189-ebce-47a1-bf16-e96ad199c48e}, !- Schedule Type Limits Name
  Through: 12/31,                         !- Field 1
  For: Weekdays,                          !- Field 2
  Until: 06:00,                           !- Field 3
  15.6,                                   !- Field 4
  Until: 21:00,                           !- Field 5
  21.0,                                   !- Field 6
  Until: 24:00,                           !- Field 7
  15.6,                                   !- Field 8
  For SummerDesignDay,                    !- Field 9
  Until: 24:00,                           !- Field 10
  15.6,                                   !- Field 11
  For WinterDesignDay,                    !- Field 12
  Until: 24:00,                           !- Field 13
  21.0,                                   !- Field 14
  For: Saturday,                          !- Field 15
  Until: 06:00,                           !- Field 16
  15.6,                                   !- Field 17
  Until: 22:00,                           !- Field 18
  21.0,                                   !- Field 19
  Until: 24:00,                           !- Field 20
  15.6,                                   !- Field 21
  For: AllOtherDays,                      !- Field 22
  Until:  8:00,                           !- Field 23
  15.6,                                   !- Field 24
  Until: 19:00,                           !- Field 25
  21.,                                    !- Field 26
  Until: 24:00,                           !- Field 27
  15.6;                                   !- Field 28

OS:ScheduleTypeLimits,
  {06919189-ebce-47a1-bf16-e96ad199c48e}, !- Handle
  Temperature,                            !- Name
  -60,                                    !- Lower Limit Value {BasedOnField A4}
  200,                                    !- Upper Limit Value {BasedOnField A4}
  CONTINUOUS,                             !- Numeric Type
  Temperature;                            !- Unit Type

OS:Schedule:Compact,
  {c728116f-8f75-4916-abed-5f27537be994}, !- Handle
  CLGSETP_SCH,                            !- Name
  {06919189-ebce-47a1-bf16-e96ad199c48e}, !- Schedule Type Limits Name
  Through: 12/31,                         !- Field 1
  For: Weekdays SummerDesignDay,          !- Field 2
  Until: 06:00,                           !- Field 3
  30.0,                                   !- Field 4
  Until: 21:00,                           !- Field 5
  24.0,                                   !- Field 6
  Until: 24:00,                           !- Field 7
  30.0,                                   !- Field 8
  For: Saturday,                          !- Field 9
  Until: 06:00,                           !- Field 10
  30.0,                                   !- Field 11
  Until: 22:00,                           !- Field 12
  24.0,                                   !- Field 13
  Until: 24:00,                           !- Field 14
  30.0,                                   !- Field 15
  For WinterDesignDay,                    !- Field 16
  Until: 24:00,                           !- Field 17
  30.0,                                   !- Field 18
  For: Sunday Holidays AllOtherDays,      !- Field 19
  Until: 8:00,                            !- Field 20
  30.0,                                   !- Field 21
  Until: 19:00,                           !- Field 22
  24.0,                                   !- Field 23
  Until: 24:00,                           !- Field 24
  30.0;                                   !- Field 25

OS:Schedule:Compact,
  {0dba371a-1a5a-4d1a-bf41-7d4b01cf3695}, !- Handle
  INFIL_HALF_ON_SCH,                      !- Name
  {230633b5-c85c-41f0-94b6-47a37b344e71}, !- Schedule Type Limits Name
  Through: 12/31,                         !- Field 1
  For: Weekdays SummerDesignDay,          !- Field 2
  Until: 06:00,                           !- Field 3
  1.0,                                    !- Field 4
  Until: 21:00,                           !- Field 5
  0.5,                                    !- Field 6
  Until: 24:00,                           !- Field 7
  1.0,                                    !- Field 8
  For: Saturday,                          !- Field 9
  Until: 06:00,                           !- Field 10
  1.0,                                    !- Field 11
  Until: 22:00,                           !- Field 12
  0.5,                                    !- Field 13
  Until: 24:00,                           !- Field 14
  1.0,                                    !- Field 15
  For: WinterDesignDay,                   !- Field 16
  Until: 24:00,                           !- Field 17
  1.0,                                    !- Field 18
  For: Sunday Holidays AllOtherDays,      !- Field 19
  Until: 08:00,                           !- Field 20
  1.0,                                    !- Field 21
  Until: 17:00,                           !- Field 22
  0.5,                                    !- Field 23
  Until: 24:00,                           !- Field 24
  1.0;                                    !- Field 25

OS:ScheduleTypeLimits,
  {230633b5-c85c-41f0-94b6-47a37b344e71}, !- Handle
  Fraction,                               !- Name
  0,                                      !- Lower Limit Value {BasedOnField A4}
  1,                                      !- Upper Limit Value {BasedOnField A4}
  CONTINUOUS;                             !- Numeric Type

OS:Lights:Definition,
  {5c7beae0-cb97-4dd2-a5cd-a0964c2ed817}, !- Handle
  SMstore3_Lights Definition,             !- Name
  Watts/Area,                             !- Design Level Calculation Method
  ,                                       !- Lighting Level {W}
  18.29,                                  !- Watts per Space Floor Area {W/m2}
  ,                                       !- Watts per Person {W/person}
  0.7,                                    !- Fraction Radiant
  0.2,                                    !- Fraction Visible
  0,                                      !- Return Air Fraction
  No;                                     !- Return Air Fraction Calculated from Plenum Temperature

OS:Lights,
  {aeeee206-3586-472a-ae31-dd40e69f562c}, !- Handle
  SMstore3_Lights,                        !- Name
  {5c7beae0-cb97-4dd2-a5cd-a0964c2ed817}, !- Lights Definition Name
  {0028933a-9cae-42d8-868e-ff34c62332a9}, !- Space or SpaceType Name
  {93a8cb39-f6bd-476d-8f77-6e75d40a9c53}, !- Schedule Name
  1,                                      !- Fraction Replaceable
  ,                                       !- Multiplier
  General;                                !- End-Use Subcategory

OS:Space,
  {0028933a-9cae-42d8-868e-ff34c62332a9}, !- Handle
  SMstore3,                               !- Name
  {91b52c75-262f-476f-bf6e-9f5eef0f8231}, !- Space Type Name
  ,                                       !- Default Construction Set Name
  ,                                       !- Default Schedule Set Name
  0,                                      !- Direction of Relative North {deg}
  0,                                      !- X Origin {m}
  0,                                      !- Y Origin {m}
  0,                                      !- Z Origin {m}
  {f8bb0252-53d3-4b96-a11b-ba76f27cc740}, !- Building Story Name
  {0484c3fb-b76b-498b-95f7-996539c0f8e7}, !- Thermal Zone Name
  Yes,                                    !- Part of Total Floor Area
  {c3fa6c5f-ee5f-4d99-bf2b-7225e8022d70}; !- Design Specification Outdoor Air Object Name

OS:Schedule:Compact,
  {93a8cb39-f6bd-476d-8f77-6e75d40a9c53}, !- Handle
  BLDG_LIGHT_SCH,                         !- Name
  {230633b5-c85c-41f0-94b6-47a37b344e71}, !- Schedule Type Limits Name
  Through: 12/31,                         !- Field 1
  For: Weekdays,                          !- Field 2
  Until: 07:00,                           !- Field 3
  0.05,                                   !- Field 4
  Until: 08:00,                           !- Field 5
  0.2,                                    !- Field 6
  Until: 09:00,                           !- Field 7
  0.5,                                    !- Field 8
  Until: 18:00,                           !- Field 9
  0.9,                                    !- Field 10
  Until: 20:00,                           !- Field 11
  0.6,                                    !- Field 12
  Until: 21:00,                           !- Field 13
  0.5,                                    !- Field 14
  Until: 22:00,                           !- Field 15
  0.2,                                    !- Field 16
  Until: 24:00,                           !- Field 17
  0.05,                                   !- Field 18
  For: Saturday,                          !- Field 19
  Until: 07:00,                           !- Field 20
  0.05,                                   !- Field 21
  Until: 08:00,                           !- Field 22
  0.1,                                    !- Field 23
  Until: 09:00,                           !- Field 24
  0.3,                                    !- Field 25
  Until: 10:00,                           !- Field 26
  0.6,                                    !- Field 27
  Until: 18:00,                           !- Field 28
  0.9,                                    !- Field 29
  Until: 19:00,                           !- Field 30
  0.5,                                    !- Field 31
  Until: 21:00,                           !- Field 32
  0.3,                                    !- Field 33
  Until: 22:00,                           !- Field 34
  0.1,                                    !- Field 35
  Until: 24:00,                           !- Field 36
  0.05,                                   !- Field 37
  For: SummerDesignDay,                   !- Field 38
  Until: 24:00,                           !- Field 39
  1.0,                                    !- Field 40
  For: WinterDesignDay,                   !- Field 41
  Until: 24:00,                           !- Field 42
  0.0,                                    !- Field 43
  For: Sunday Holidays AllOtherDays,      !- Field 44
  Until: 08:00,                           !- Field 45
  0.05,                                   !- Field 46
  Until: 10:00,                           !- Field 47
  0.1,                                    !- Field 48
  Until: 12:00,                           !- Field 49
  0.4,                                    !- Field 50
  Until: 17:00,                           !- Field 51
  0.6,                                    !- Field 52
  Until: 18:00,                           !- Field 53
  0.4,                                    !- Field 54
  Until: 19:00,                           !- Field 55
  0.2,                                    !- Field 56
  Until: 24:00,                           !- Field 57
  0.05;                                   !- Field 58

OS:Surface,
  {b5e6368e-cd76-4221-a809-ac757e56635d}, !- Handle
  SMstore6_Wall_2,                        !- Name
  Wall,                                   !- Surface Type
  {72b4a337-4b2b-422e-9fc3-483c45cd8607}, !- Construction Name
  {be6e69a7-548b-4b8b-9f90-8b597a6820ed}, !- Space Name
  Surface,                                !- Outside Boundary Condition
  {5fa12e7d-49b1-4209-8f71-fe055b9e9114}, !- Outside Boundary Condition Object
  NoSun,                                  !- Sun Exposure
  NoWind,                                 !- Wind Exposure
  ,                                       !- View Factor to Ground
  ,                                       !- Number of Vertices
  68.58, 22.86, 5.18,                     !- X,Y,Z Vertex 1 {m}
  68.58, 22.86, 0,                        !- X,Y,Z Vertex 2 {m}
  68.58, 0, 0,                            !- X,Y,Z Vertex 3 {m}
  68.58, 0, 5.18;                         !- X,Y,Z Vertex 4 {m}

OS:Construction,
  {72b4a337-4b2b-422e-9fc3-483c45cd8607}, !- Handle
  int-walls,                              !- Name
  ,                                       !- Surface Rendering Name
  {1fb5beb1-6218-401b-9a14-019c02b98282}, !- Layer 1
  {1fb5beb1-6218-401b-9a14-019c02b98282}; !- Layer 2

OS:Material,
  {1fb5beb1-6218-401b-9a14-019c02b98282}, !- Handle
  1/2IN Gypsum,                           !- Name
  Smooth,                                 !- Roughness
  0.0127,                                 !- Thickness {m}
  0.16,                                   !- Conductivity {W/m-K}
  784.9,                                  !- Density {kg/m3}
  830,                                    !- Specific Heat {J/kg-K}
  0.9,                                    !- Thermal Absorptance
  0.92,                                   !- Solar Absorptance
  0.92;                                   !- Visible Absorptance

OS:Space,
  {be6e69a7-548b-4b8b-9f90-8b597a6820ed}, !- Handle
  SMstore6,                               !- Name
  {91b52c75-262f-476f-bf6e-9f5eef0f8231}, !- Space Type Name
  ,                                       !- Default Construction Set Name
  ,                                       !- Default Schedule Set Name
  0,                                      !- Direction of Relative North {deg}
  0,                                      !- X Origin {m}
  0,                                      !- Y Origin {m}
  0,                                      !- Z Origin {m}
  {f8bb0252-53d3-4b96-a11b-ba76f27cc740}, !- Building Story Name
  {0484c3fb-b76b-498b-95f7-996539c0f8e7}, !- Thermal Zone Name
  Yes,                                    !- Part of Total Floor Area
  {a5793ccc-b475-4b3c-8b51-4e1f446d2d70}; !- Design Specification Outdoor Air Object Name

OS:Surface,
  {32cd18e2-9e64-4c59-ac25-868d6757c09c}, !- Handle
  SMstore2_Roof,                          !- Name
  RoofCeiling,                            !- Surface Type
  {167f3969-89c9-4268-8581-9f0032ab2bba}, !- Construction Name
  {6ab64020-3e06-4d11-ad39-3797aff72803}, !- Space Name
  Outdoors,                               !- Outside Boundary Condition
  ,                                       !- Outside Boundary Condition Object
  SunExposed,                             !- Sun Exposure
  WindExposed,                            !- Wind Exposure
  ,                                       !- View Factor to Ground
  ,                                       !- Number of Vertices
  30.48, 0, 5.18,                         !- X,Y,Z Vertex 1 {m}
  30.48, 22.86, 5.18,                     !- X,Y,Z Vertex 2 {m}
  22.86, 22.86, 5.18,                     !- X,Y,Z Vertex 3 {m}
  22.86, 0, 5.18;                         !- X,Y,Z Vertex 4 {m}

OS:Construction,
  {167f3969-89c9-4268-8581-9f0032ab2bba}, !- Handle
  IEAD Non-res Roof,                      !- Name
  ,                                       !- Surface Rendering Name
  {8200a4ed-c4bc-49d9-8c2d-328d3fb53e7d}, !- Layer 1
  {d263a662-2cd7-4683-9d22-35628637aaea}, !- Layer 2
  {8719a62a-aee4-45ef-87a2-cd0780a4c6bf}; !- Layer 3

OS:Material,
  {8200a4ed-c4bc-49d9-8c2d-328d3fb53e7d}, !- Handle
  Roof Membrane,                          !- Name
  VeryRough,                              !- Roughness
  0.0095,                                 !- Thickness {m}
  0.16,                                   !- Conductivity {W/m-K}
  1121.29,                                !- Density {kg/m3}
  1460,                                   !- Specific Heat {J/kg-K}
  0.9,                                    !- Thermal Absorptance
  0.7,                                    !- Solar Absorptance
  0.7;                                    !- Visible Absorptance

OS:Material,
  {d263a662-2cd7-4683-9d22-35628637aaea}, !- Handle
  IEAD NonRes Roof Insulation,            !- Name
  MediumRough,                            !- Roughness
  0.127338688569477,                      !- Thickness {m}
  0.049,                                  !- Conductivity {W/m-K}
  265,                                    !- Density {kg/m3}
  836.8,                                  !- Specific Heat {J/kg-K}
  0.9,                                    !- Thermal Absorptance
  0.7,                                    !- Solar Absorptance
  0.7;                                    !- Visible Absorptance

OS:Material,
  {8719a62a-aee4-45ef-87a2-cd0780a4c6bf}, !- Handle
  Metal Decking,                          !- Name
  MediumSmooth,                           !- Roughness
  0.0015,                                 !- Thickness {m}
  45.006,                                 !- Conductivity {W/m-K}
  7680,                                   !- Density {kg/m3}
  418.4,                                  !- Specific Heat {J/kg-K}
  0.9,                                    !- Thermal Absorptance
  0.7,                                    !- Solar Absorptance
  0.3;                                    !- Visible Absorptance

OS:Space,
  {6ab64020-3e06-4d11-ad39-3797aff72803}, !- Handle
  SMstore2,                               !- Name
  {91b52c75-262f-476f-bf6e-9f5eef0f8231}, !- Space Type Name
  ,                                       !- Default Construction Set Name
  ,                                       !- Default Schedule Set Name
  0,                                      !- Direction of Relative North {deg}
  0,                                      !- X Origin {m}
  0,                                      !- Y Origin {m}
  0,                                      !- Z Origin {m}
  {f8bb0252-53d3-4b96-a11b-ba76f27cc740}, !- Building Story Name
  {0484c3fb-b76b-498b-95f7-996539c0f8e7}, !- Thermal Zone Name
  Yes,                                    !- Part of Total Floor Area
  {6ecd6ea8-16a3-4c0a-9a29-edd142313e82}; !- Design Specification Outdoor Air Object Name

OS:Surface,
  {c893c97d-f404-411a-94d1-ef4dded56473}, !- Handle
  SMstore1_Wall_1,                        !- Name
  Wall,                                   !- Surface Type
  {f3225eb0-f51c-4f81-8a35-e7ccf5da7088}, !- Construction Name
  {63fd0a8b-7373-4126-979b-e29f84be0e06}, !- Space Name
  Outdoors,                               !- Outside Boundary Condition
  ,                                       !- Outside Boundary Condition Object
  SunExposed,                             !- Sun Exposure
  WindExposed,                            !- Wind Exposure
  ,                                       !- View Factor to Ground
  ,                                       !- Number of Vertices
  15.24, 0, 5.18,                         !- X,Y,Z Vertex 1 {m}
  15.24, 0, 0,                            !- X,Y,Z Vertex 2 {m}
  22.86, 0, 0,                            !- X,Y,Z Vertex 3 {m}
  22.86, 0, 5.18;                         !- X,Y,Z Vertex 4 {m}

OS:Construction,
  {f3225eb0-f51c-4f81-8a35-e7ccf5da7088}, !- Handle
  Steel Frame Non-res Ext Wall,           !- Name
  ,                                       !- Surface Rendering Name
  {db42cae4-d3a7-48e7-812e-bf14f01257f9}, !- Layer 1
  {fb81e4bb-8efc-435d-8b91-6e040f6118c2}, !- Layer 2
  {1fb5beb1-6218-401b-9a14-019c02b98282}; !- Layer 3

OS:Material,
  {db42cae4-d3a7-48e7-812e-bf14f01257f9}, !- Handle
  Wood Siding,                            !- Name
  MediumSmooth,                           !- Roughness
  0.01,                                   !- Thickness {m}
  0.11,                                   !- Conductivity {W/m-K}
  544.62,                                 !- Density {kg/m3}
  1210,                                   !- Specific Heat {J/kg-K}
  0.9,                                    !- Thermal Absorptance
  0.78,                                   !- Solar Absorptance
  0.78;                                   !- Visible Absorptance

OS:Material,
  {fb81e4bb-8efc-435d-8b91-6e040f6118c2}, !- Handle
  Steel Frame NonRes Wall Insulation,     !- Name
  MediumRough,                            !- Roughness
  0.0870564552646045,                     !- Thickness {m}
  0.049,                                  !- Conductivity {W/m-K}
  265,                                    !- Density {kg/m3}
  836.8,                                  !- Specific Heat {J/kg-K}
  0.9,                                    !- Thermal Absorptance
  0.7,                                    !- Solar Absorptance
  0.7;                                    !- Visible Absorptance

OS:Space,
  {c2ce3b08-f636-40aa-bed3-989dc69b825e}, !- Handle
  SMstore4,                               !- Name
  {91b52c75-262f-476f-bf6e-9f5eef0f8231}, !- Space Type Name
  ,                                       !- Default Construction Set Name
  ,                                       !- Default Schedule Set Name
  0,                                      !- Direction of Relative North {deg}
  0,                                      !- X Origin {m}
  0,                                      !- Y Origin {m}
  0,                                      !- Z Origin {m}
  {f8bb0252-53d3-4b96-a11b-ba76f27cc740}, !- Building Story Name
  {0484c3fb-b76b-498b-95f7-996539c0f8e7}, !- Thermal Zone Name
  Yes,                                    !- Part of Total Floor Area
  {c526e6f0-1d7b-4cad-9771-09be9c8d6836}; !- Design Specification Outdoor Air Object Name

OS:DesignSpecification:OutdoorAir,
  {c526e6f0-1d7b-4cad-9771-09be9c8d6836}, !- Handle
  SZ DSOA SMstore4,                       !- Name
  ,                                       !- Outdoor Air Method
  ,                                       !- Outdoor Air Flow per Person {m3/s-person}
  0.00152,                                !- Outdoor Air Flow per Floor Area {m3/s-m2}
  ,                                       !- Outdoor Air Flow Rate {m3/s}
  ,                                       !- Outdoor Air Flow Air Changes per Hour {1/hr}
  ;                                       !- Outdoor Air Flow Rate Fraction Schedule Name

OS:Surface,
  {34da58e8-c3b2-444f-b111-cadd77c5a176}, !- Handle
  SMstore6_Wall_4,                        !- Name
  Wall,                                   !- Surface Type
  {72b4a337-4b2b-422e-9fc3-483c45cd8607}, !- Construction Name
  {be6e69a7-548b-4b8b-9f90-8b597a6820ed}, !- Space Name
  Surface,                                !- Outside Boundary Condition
  {d00b10b4-234c-44c8-ba6d-69c8cafb8ee1}, !- Outside Boundary Condition Object
  NoSun,                                  !- Sun Exposure
  NoWind,                                 !- Wind Exposure
  ,                                       !- View Factor to Ground
  ,                                       !- Number of Vertices
  76.2, 0, 5.18,                          !- X,Y,Z Vertex 1 {m}
  76.2, 0, 0,                             !- X,Y,Z Vertex 2 {m}
  76.2, 22.86, 0,                         !- X,Y,Z Vertex 3 {m}
  76.2, 22.86, 5.18;                      !- X,Y,Z Vertex 4 {m}

OS:Lights:Definition,
  {00a93cbe-e32f-4d4f-9b9e-6b6f6bc05dac}, !- Handle
  SMstore7_Lights Definition,             !- Name
  Watts/Area,                             !- Design Level Calculation Method
  ,                                       !- Lighting Level {W}
  13.77,                                  !- Watts per Space Floor Area {W/m2}
  ,                                       !- Watts per Person {W/person}
  0.7,                                    !- Fraction Radiant
  0.2,                                    !- Fraction Visible
  0,                                      !- Return Air Fraction
  No;                                     !- Return Air Fraction Calculated from Plenum Temperature

OS:Lights,
  {c34ade12-78cf-45d8-8ac4-bab5a45bf468}, !- Handle
  SMstore7_Lights,                        !- Name
  {00a93cbe-e32f-4d4f-9b9e-6b6f6bc05dac}, !- Lights Definition Name
  {286bc812-7fba-49bd-acbf-a75df7e6c4f9}, !- Space or SpaceType Name
  {93a8cb39-f6bd-476d-8f77-6e75d40a9c53}, !- Schedule Name
  1,                                      !- Fraction Replaceable
  ,                                       !- Multiplier
  General;                                !- End-Use Subcategory

OS:Space,
  {286bc812-7fba-49bd-acbf-a75df7e6c4f9}, !- Handle
  SMstore7,                               !- Name
  {91b52c75-262f-476f-bf6e-9f5eef0f8231}, !- Space Type Name
  ,                                       !- Default Construction Set Name
  ,                                       !- Default Schedule Set Name
  0,                                      !- Direction of Relative North {deg}
  0,                                      !- X Origin {m}
  0,                                      !- Y Origin {m}
  0,                                      !- Z Origin {m}
  {f8bb0252-53d3-4b96-a11b-ba76f27cc740}, !- Building Story Name
  {0484c3fb-b76b-498b-95f7-996539c0f8e7}, !- Thermal Zone Name
  Yes,                                    !- Part of Total Floor Area
  {992fa6f1-bfc3-44e7-9626-ded0bf038af8}; !- Design Specification Outdoor Air Object Name

OS:Surface,
  {5fa12e7d-49b1-4209-8f71-fe055b9e9114}, !- Handle
  SMstore5_Wall_4,                        !- Name
  Wall,                                   !- Surface Type
  {72b4a337-4b2b-422e-9fc3-483c45cd8607}, !- Construction Name
  {76ef8373-19e7-4ebc-9dd4-0b24164f8f7c}, !- Space Name
  Surface,                                !- Outside Boundary Condition
  {b5e6368e-cd76-4221-a809-ac757e56635d}, !- Outside Boundary Condition Object
  NoSun,                                  !- Sun Exposure
  NoWind,                                 !- Wind Exposure
  ,                                       !- View Factor to Ground
  ,                                       !- Number of Vertices
  68.58, 0, 5.18,                         !- X,Y,Z Vertex 1 {m}
  68.58, 0, 0,                            !- X,Y,Z Vertex 2 {m}
  68.58, 22.86, 0,                        !- X,Y,Z Vertex 3 {m}
  68.58, 22.86, 5.18;                     !- X,Y,Z Vertex 4 {m}

OS:Space,
  {76ef8373-19e7-4ebc-9dd4-0b24164f8f7c}, !- Handle
  SMstore5,                               !- Name
  {91b52c75-262f-476f-bf6e-9f5eef0f8231}, !- Space Type Name
  ,                                       !- Default Construction Set Name
  ,                                       !- Default Schedule Set Name
  0,                                      !- Direction of Relative North {deg}
  0,                                      !- X Origin {m}
  0,                                      !- Y Origin {m}
  0,                                      !- Z Origin {m}
  {f8bb0252-53d3-4b96-a11b-ba76f27cc740}, !- Building Story Name
  {0484c3fb-b76b-498b-95f7-996539c0f8e7}, !- Thermal Zone Name
  Yes,                                    !- Part of Total Floor Area
  {fb746e5e-e6d2-4e6d-b928-1aac5216af77}; !- Design Specification Outdoor Air Object Name

OS:Surface,
  {ca37b6a1-0503-419d-abb9-0d82aba1be15}, !- Handle
  LGstore2_Floor,                         !- Name
  Floor,                                  !- Surface Type
  {7496f2a6-7fcd-4bec-a271-819a665d848e}, !- Construction Name
  {34343634-86ff-47aa-b754-2e245fecbd55}, !- Space Name