
OS:Version,
  {a701cd6f-d7f5-4319-9abe-a155e4756128}, !- Handle
  1.8.5;                                  !- Version Identifier

OS:Site,
  {c1ffdb10-16ac-4a36-919c-5c973c42e2c3}, !- Handle
  USA IL-CHICAGO-OHARE,                   !- Name
  41.77,                                  !- Latitude {deg}
  -87.75,                                 !- Longitude {deg}
  -6,                                     !- Time Zone {hr}
  190,                                    !- Elevation {m}
  City;                                   !- Terrain

OS:SimulationControl,
  {9e8f228a-0ec0-4cd2-80bb-45347aef94e1}, !- Handle
  Yes,                                    !- Do Zone Sizing Calculation
  Yes,                                    !- Do System Sizing Calculation
  Yes,                                    !- Do Plant Sizing Calculation
  No,                                     !- Run Simulation for Sizing Periods
  Yes,                                    !- Run Simulation for Weather File Run Periods
  0.04,                                   !- Loads Convergence Tolerance Value
  0.2,                                    !- Temperature Convergence Tolerance Value {deltaC}
  FullInteriorAndExterior,                !- Solar Distribution
  25,                                     !- Maximum Number of Warmup Days
  6;                                      !- Minimum Number of Warmup Days

OS:SubSurface,
  {83e99ca6-c697-469a-bc19-5385a0a412fc}, !- Handle
  LGstore2_Wall_3_Door_1,                 !- Name
  Door,                                   !- Sub Surface Type
  {5c4f6326-b4e9-4542-acd2-03b373447ebc}, !- Construction Name
  {49d43e81-8072-4a6f-8349-cc6027aad148}, !- Surface Name
  ,                                       !- Outside Boundary Condition Object
  ,                                       !- View Factor to Ground
  ,                                       !- Shading Control Name
  ,                                       !- Frame and Divider Name
  1,                                      !- Multiplier
  ,                                       !- Number of Vertices
  50.44, 22.86, 2.13,                     !- X,Y,Z Vertex 1 {m}
  50.44, 22.86, 0,                        !- X,Y,Z Vertex 2 {m}
  48.62, 22.86, 0,                        !- X,Y,Z Vertex 3 {m}
  48.62, 22.86, 2.13;                     !- X,Y,Z Vertex 4 {m}

OS:Construction,
  {5c4f6326-b4e9-4542-acd2-03b373447ebc}, !- Handle
  Swinging Door Non-res,                  !- Name
  ,                                       !- Surface Rendering Name
  {863241f1-460c-40bb-bbbe-e9ad5155b06f}; !- Layer 1

OS:Material:NoMass,
  {863241f1-460c-40bb-bbbe-e9ad5155b06f}, !- Handle
  Opaque Door panel NonRes,               !- Name
  MediumRough,                            !- Roughness
  0.101897046243647,                      !- Thermal Resistance {m2-K/W}
  0.9,                                    !- Thermal Absorptance
  0.7,                                    !- Solar Absorptance
  0.7;                                    !- Visible Absorptance

OS:Surface,
  {49d43e81-8072-4a6f-8349-cc6027aad148}, !- Handle
  LGstore2_Wall_3,                        !- Name
  Wall,                                   !- Surface Type
  {22c79c03-771f-4412-8a9a-31ea95c3a2ba}, !- Construction Name
  {a95b4cee-2fc4-456b-bf55-53133b6d19de}, !- Space Name
  Outdoors,                               !- Outside Boundary Condition
  ,                                       !- Outside Boundary Condition Object
  SunExposed,                             !- Sun Exposure
  WindExposed,                            !- Wind Exposure
  ,                                       !- View Factor to Ground
  ,                                       !- Number of Vertices
  60.96, 22.86, 5.18,                     !- X,Y,Z Vertex 1 {m}
  60.96, 22.86, 0,                        !- X,Y,Z Vertex 2 {m}
  45.72, 22.86, 0,                        !- X,Y,Z Vertex 3 {m}
  45.72, 22.86, 5.18;                     !- X,Y,Z Vertex 4 {m}

OS:Construction,
  {22c79c03-771f-4412-8a9a-31ea95c3a2ba}, !- Handle
  Steel Frame Non-res Ext Wall,           !- Name
  ,                                       !- Surface Rendering Name
  {6ce174f7-fbb8-4d6a-9a84-0e5304a34410}, !- Layer 1
  {afc0dc5f-27d7-449a-837c-c8a25394ab83}, !- Layer 2
  {22bc597c-e7ab-4544-b44d-d2a1e5f7485b}; !- Layer 3

OS:Material,
  {6ce174f7-fbb8-4d6a-9a84-0e5304a34410}, !- Handle
  Wood Siding,                            !- Name
  MediumSmooth,                           !- Roughness
  0.01,                                   !- Thickness {m}
  0.11,                                   !- Conductivity {W/m-K}
  544.62,                                 !- Density {kg/m3}
  1210,                                   !- Specific Heat {J/kg-K}
  0.9,                                    !- Thermal Absorptance
  0.78,                                   !- Solar Absorptance
  0.78;                                   !- Visible Absorptance

OS:Material,
  {afc0dc5f-27d7-449a-837c-c8a25394ab83}, !- Handle
  Steel Frame NonRes Wall Insulation,     !- Name
  MediumRough,                            !- Roughness
  0.0870564552646045,                     !- Thickness {m}
  0.049,                                  !- Conductivity {W/m-K}
  265,                                    !- Density {kg/m3}
  836.8,                                  !- Specific Heat {J/kg-K}
  0.9,                                    !- Thermal Absorptance
  0.7,                                    !- Solar Absorptance
  0.7;                                    !- Visible Absorptance

OS:Material,
  {22bc597c-e7ab-4544-b44d-d2a1e5f7485b}, !- Handle
  1/2IN Gypsum,                           !- Name
  Smooth,                                 !- Roughness
  0.0127,                                 !- Thickness {m}
  0.16,                                   !- Conductivity {W/m-K}
  784.9,                                  !- Density {kg/m3}
  830,                                    !- Specific Heat {J/kg-K}
  0.9,                                    !- Thermal Absorptance
  0.92,                                   !- Solar Absorptance
  0.92;                                   !- Visible Absorptance

OS:Space,
  {a95b4cee-2fc4-456b-bf55-53133b6d19de}, !- Handle
  LGstore2,                               !- Name
  {4d70c104-7911-42f9-b4b2-2ef3dcc2e6f6}, !- Space Type Name
  ,                                       !- Default Construction Set Name
  ,                                       !- Default Schedule Set Name
  0,                                      !- Direction of Relative North {deg}
  0,                                      !- X Origin {m}
  0,                                      !- Y Origin {m}
  0,                                      !- Z Origin {m}
  {7cee30a4-af37-4dd8-ab38-713fba82c6dd}, !- Building Story Name
  {0bb4836e-4a0c-4e19-aad5-6bef3996776a}, !- Thermal Zone Name
  Yes,                                    !- Part of Total Floor Area
  {69fbb35f-69a2-4491-bb17-74e4e7565604}; !- Design Specification Outdoor Air Object Name

OS:ThermostatSetpoint:DualSetpoint,
  {47b79cd6-0573-43d8-8c2c-138506beac83}, !- Handle
  {b500d262-25c3-4ee5-b1b0-d347a820b07a}, !- Name
  {4ecfa84c-c0b5-4a5a-a20e-0ac315eb796c}, !- Heating Setpoint Temperature Schedule Name
  {7848a239-d544-465e-900f-e287297104ad}; !- Cooling Setpoint Temperature Schedule Name

OS:Schedule:Compact,
  {4ecfa84c-c0b5-4a5a-a20e-0ac315eb796c}, !- Handle
  HTGSETP_SCH,                            !- Name
  {70c6eedd-f830-4028-9c07-1d601d2d9b5c}, !- Schedule Type Limits Name
  Through: 12/31,                         !- Field 1
  For: Weekdays,                          !- Field 2
  Until: 06:00,                           !- Field 3
  15.6,                                   !- Field 4
  Until: 21:00,                           !- Field 5
  21.0,                                   !- Field 6
  Until: 24:00,                           !- Field 7
  15.6,                                   !- Field 8
  For SummerDesignDay,                    !- Field 9
  Until: 24:00,                           !- Field 10
  15.6,                                   !- Field 11
  For WinterDesignDay,                    !- Field 12
  Until: 24:00,                           !- Field 13
  21.0,                                   !- Field 14
  For: Saturday,                          !- Field 15
  Until: 06:00,                           !- Field 16
  15.6,                                   !- Field 17
  Until: 22:00,                           !- Field 18
  21.0,                                   !- Field 19
  Until: 24:00,                           !- Field 20
  15.6,                                   !- Field 21
  For: AllOtherDays,                      !- Field 22
  Until:  8:00,                           !- Field 23
  15.6,                                   !- Field 24
  Until: 19:00,                           !- Field 25
  21.,                                    !- Field 26
  Until: 24:00,                           !- Field 27
  15.6;                                   !- Field 28

OS:ScheduleTypeLimits,
  {70c6eedd-f830-4028-9c07-1d601d2d9b5c}, !- Handle
  Temperature,                            !- Name
  -60,                                    !- Lower Limit Value {BasedOnField A4}
  200,                                    !- Upper Limit Value {BasedOnField A4}
  CONTINUOUS,                             !- Numeric Type
  Temperature;                            !- Unit Type

OS:Schedule:Compact,
  {7848a239-d544-465e-900f-e287297104ad}, !- Handle
  CLGSETP_SCH,                            !- Name
  {70c6eedd-f830-4028-9c07-1d601d2d9b5c}, !- Schedule Type Limits Name
  Through: 12/31,                         !- Field 1
  For: Weekdays SummerDesignDay,          !- Field 2
  Until: 06:00,                           !- Field 3
  30.0,                                   !- Field 4
  Until: 21:00,                           !- Field 5
  24.0,                                   !- Field 6
  Until: 24:00,                           !- Field 7
  30.0,                                   !- Field 8
  For: Saturday,                          !- Field 9
  Until: 06:00,                           !- Field 10
  30.0,                                   !- Field 11
  Until: 22:00,                           !- Field 12
  24.0,                                   !- Field 13
  Until: 24:00,                           !- Field 14
  30.0,                                   !- Field 15
  For WinterDesignDay,                    !- Field 16
  Until: 24:00,                           !- Field 17
  30.0,                                   !- Field 18
  For: Sunday Holidays AllOtherDays,      !- Field 19
  Until: 8:00,                            !- Field 20
  30.0,                                   !- Field 21
  Until: 19:00,                           !- Field 22
  24.0,                                   !- Field 23
  Until: 24:00,                           !- Field 24
  30.0;                                   !- Field 25

OS:Timestep,
  {c0356383-cf1d-4e1f-aee1-e975c710615c}, !- Handle
  6;                                      !- Number of Timesteps per Hour

OS:SubSurface,
  {33108531-a57f-4a47-a7da-097ca3420f71}, !- Handle
  SMstore8_Wall_3_Door,                   !- Name
  Door,                                   !- Sub Surface Type
  {5c4f6326-b4e9-4542-acd2-03b373447ebc}, !- Construction Name
  {5bd7412c-57db-4f37-a142-33cdebf51d86}, !- Surface Name
  ,                                       !- Outside Boundary Condition Object
  ,                                       !- View Factor to Ground
  ,                                       !- Shading Control Name
  ,                                       !- Frame and Divider Name
  1,                                      !- Multiplier
  ,                                       !- Number of Vertices
  88.54, 22.86, 2.13,                     !- X,Y,Z Vertex 1 {m}
  88.54, 22.86, 0,                        !- X,Y,Z Vertex 2 {m}
  86.72, 22.86, 0,                        !- X,Y,Z Vertex 3 {m}
  86.72, 22.86, 2.13;                     !- X,Y,Z Vertex 4 {m}

OS:Surface,
  {5bd7412c-57db-4f37-a142-33cdebf51d86}, !- Handle
  SMstore8_Wall_3,                        !- Name
  Wall,                                   !- Surface Type
  {22c79c03-771f-4412-8a9a-31ea95c3a2ba}, !- Construction Name
  {b1aafed4-b0d8-4bf3-9cf6-9cbb339c0be4}, !- Space Name
  Outdoors,                               !- Outside Boundary Condition
  ,                                       !- Outside Boundary Condition Object
  SunExposed,                             !- Sun Exposure
  WindExposed,                            !- Wind Exposure
  ,                                       !- View Factor to Ground
  ,                                       !- Number of Vertices
  91.44, 22.86, 5.18,                     !- X,Y,Z Vertex 1 {m}
  91.44, 22.86, 0,                        !- X,Y,Z Vertex 2 {m}
  83.82, 22.86, 0,                        !- X,Y,Z Vertex 3 {m}
  83.82, 22.86, 5.18;                     !- X,Y,Z Vertex 4 {m}

OS:Space,
  {b1aafed4-b0d8-4bf3-9cf6-9cbb339c0be4}, !- Handle
  SMstore8,                               !- Name
  {4d70c104-7911-42f9-b4b2-2ef3dcc2e6f6}, !- Space Type Name
  ,                                       !- Default Construction Set Name
  ,                                       !- Default Schedule Set Name
  0,                                      !- Direction of Relative North {deg}
  0,                                      !- X Origin {m}
  0,                                      !- Y Origin {m}
  0,                                      !- Z Origin {m}
  {7cee30a4-af37-4dd8-ab38-713fba82c6dd}, !- Building Story Name
  {b9e8826c-1686-481c-ad57-d00f53055d9e}, !- Thermal Zone Name
  Yes,                                    !- Part of Total Floor Area
  {c9de8a54-2927-434b-bac1-9b749be73c8f}; !- Design Specification Outdoor Air Object Name

OS:ThermostatSetpoint:DualSetpoint,
  {313a7ff3-ecdf-44a4-957c-7bf7f11b8323}, !- Handle
  {96655113-9538-42de-a74a-35a5a29d725b}, !- Name
  {4ecfa84c-c0b5-4a5a-a20e-0ac315eb796c}, !- Heating Setpoint Temperature Schedule Name
  {7848a239-d544-465e-900f-e287297104ad}; !- Cooling Setpoint Temperature Schedule Name

OS:Schedule:Compact,
  {ace16920-320b-46aa-b504-bf244731cae7}, !- Handle
  AIR_VELO_SCH,                           !- Name
  ,                                       !- Schedule Type Limits Name
  Through: 12/31,                         !- Field 1
  For: AllDays,                           !- Field 2
  Until: 24:00,                           !- Field 3
  0.2;                                    !- Field 4

OS:ScheduleTypeLimits,
  {8ac2db37-47fe-4b4a-8ffc-8a501591b94f}, !- Handle
  {0ae97938-b3d2-464e-9db4-a084a053459c}; !- Name

OS:Surface,
  {65d8c394-062e-4f2f-a5e4-146780e2a37e}, !- Handle
  SMstore5_Wall_2,                        !- Name
  Wall,                                   !- Surface Type
  {7838160f-aeb5-4485-8607-65136ee83422}, !- Construction Name
  {fe7a328c-d40a-4127-9be2-83de766f1e3b}, !- Space Name
  Surface,                                !- Outside Boundary Condition
  {81251177-51a0-478f-a5a3-9af793762f70}, !- Outside Boundary Condition Object
  NoSun,                                  !- Sun Exposure
  NoWind,                                 !- Wind Exposure
  ,                                       !- View Factor to Ground
  ,                                       !- Number of Vertices
  60.96, 22.86, 5.18,                     !- X,Y,Z Vertex 1 {m}
  60.96, 22.86, 0,                        !- X,Y,Z Vertex 2 {m}
  60.96, 0, 0,                            !- X,Y,Z Vertex 3 {m}
  60.96, 0, 5.18;                         !- X,Y,Z Vertex 4 {m}

OS:Construction,
  {7838160f-aeb5-4485-8607-65136ee83422}, !- Handle
  int-walls,                              !- Name
  ,                                       !- Surface Rendering Name
  {22bc597c-e7ab-4544-b44d-d2a1e5f7485b}, !- Layer 1
  {22bc597c-e7ab-4544-b44d-d2a1e5f7485b}; !- Layer 2

OS:Space,
  {fe7a328c-d40a-4127-9be2-83de766f1e3b}, !- Handle
  SMstore5,                               !- Name
  {4d70c104-7911-42f9-b4b2-2ef3dcc2e6f6}, !- Space Type Name
  ,                                       !- Default Construction Set Name
  ,                                       !- Default Schedule Set Name
  0,                                      !- Direction of Relative North {deg}
  0,                                      !- X Origin {m}
  0,                                      !- Y Origin {m}
  0,                                      !- Z Origin {m}
  {7cee30a4-af37-4dd8-ab38-713fba82c6dd}, !- Building Story Name
  {0bb4836e-4a0c-4e19-aad5-6bef3996776a}, !- Thermal Zone Name
  Yes,                                    !- Part of Total Floor Area
  {d2267deb-8ba5-43b3-83aa-854180c2a9c2}; !- Design Specification Outdoor Air Object Name

OS:ThermostatSetpoint:DualSetpoint,
  {1b8d0b00-1b8e-47c2-9026-97ad12988636}, !- Handle
  {a90c2553-e7f7-4790-a383-73316d1ad35d}, !- Name
  {4ecfa84c-c0b5-4a5a-a20e-0ac315eb796c}, !- Heating Setpoint Temperature Schedule Name
  {7848a239-d544-465e-900f-e287297104ad}; !- Cooling Setpoint Temperature Schedule Name

OS:SubSurface,
  {9bf9e180-00b8-47c2-afe8-6397b69f1c5d}, !- Handle
  LGstore1_Wall_1_Door_1,                 !- Name
  GlassDoor,                              !- Sub Surface Type
  {4cb55b1c-1ab6-43df-b970-7351c177a563}, !- Construction Name
  {39248fa2-9b45-43eb-99c5-6e0abd462677}, !- Surface Name
  ,                                       !- Outside Boundary Condition Object
  ,                                       !- View Factor to Ground
  ,                                       !- Shading Control Name
  ,                                       !- Frame and Divider Name
  1,                                      !- Multiplier
  ,                                       !- Number of Vertices
  2.9, 0, 2.13,                           !- X,Y,Z Vertex 1 {m}
  2.9, 0, 0,                              !- X,Y,Z Vertex 2 {m}
  4.73, 0, 0,                             !- X,Y,Z Vertex 3 {m}
  4.73, 0, 2.13;                          !- X,Y,Z Vertex 4 {m}

OS:Construction,
  {4cb55b1c-1ab6-43df-b970-7351c177a563}, !- Handle
  Window Non-res Fixed,                   !- Name
  ,                                       !- Surface Rendering Name
  {4a350cc7-9b02-4ced-af77-8bbfa29fece3}; !- Layer 1

OS:WindowMaterial:SimpleGlazingSystem,
  {4a350cc7-9b02-4ced-af77-8bbfa29fece3}, !- Handle
  NonRes Fixed Assembly Window,           !- Name
  3.23646,                                !- U-Factor {W/m2-K}
  0.39;                                   !- Solar Heat Gain Coefficient

OS:Surface,
  {39248fa2-9b45-43eb-99c5-6e0abd462677}, !- Handle
  LGstore1_Wall_1,                        !- Name
  Wall,                                   !- Surface Type
  {22c79c03-771f-4412-8a9a-31ea95c3a2ba}, !- Construction Name
  {82ddc574-122d-490b-b4da-6a16d0d3add9}, !- Space Name
  Outdoors,                               !- Outside Boundary Condition
  ,                                       !- Outside Boundary Condition Object
  SunExposed,                             !- Sun Exposure
  WindExposed,                            !- Wind Exposure
  ,                                       !- View Factor to Ground
  ,                                       !- Number of Vertices
  0, 0, 5.18,                             !- X,Y,Z Vertex 1 {m}
  0, 0, 0,                                !- X,Y,Z Vertex 2 {m}
  15.24, 0, 0,                            !- X,Y,Z Vertex 3 {m}
  15.24, 0, 5.18;                         !- X,Y,Z Vertex 4 {m}

OS:Space,
  {82ddc574-122d-490b-b4da-6a16d0d3add9}, !- Handle
  LGstore1,                               !- Name
  {4d70c104-7911-42f9-b4b2-2ef3dcc2e6f6}, !- Space Type Name
  ,                                       !- Default Construction Set Name
  ,                                       !- Default Schedule Set Name
  0,                                      !- Direction of Relative North {deg}
  0,                                      !- X Origin {m}
  0,                                      !- Y Origin {m}
  0,                                      !- Z Origin {m}
  {7cee30a4-af37-4dd8-ab38-713fba82c6dd}, !- Building Story Name
  {423972ff-14f8-4e3a-8063-48f04a3ca006}, !- Thermal Zone Name
  Yes,                                    !- Part of Total Floor Area
  {96291b24-7eef-4668-99c0-2aa9bb4e73f1}; !- Design Specification Outdoor Air Object Name

OS:ThermostatSetpoint:DualSetpoint,
  {b851bffe-df22-467b-9ee5-4b1149be34e8}, !- Handle
  {22a09a82-35e3-4390-9460-c51ceceac946}, !- Name
  {4ecfa84c-c0b5-4a5a-a20e-0ac315eb796c}, !- Heating Setpoint Temperature Schedule Name
  {7848a239-d544-465e-900f-e287297104ad}; !- Cooling Setpoint Temperature Schedule Name

OS:InternalMass:Definition,
  {35acb3a6-76aa-477f-b244-5f6bc08ee412}, !- Handle
  SMstore7 Internal Mass Definition,      !- Name
  {03663e17-d4eb-4519-9815-84b2ba4e89eb}, !- Construction Name
  SurfaceArea,                            !- Design Level Calculation Method
  348.3864,                               !- Surface Area {m2}
  ,                                       !- Surface Area per Space Floor Area {dimensionless}
  ;                                       !- Surface Area per Person {m2/person}

OS:Construction,
  {03663e17-d4eb-4519-9815-84b2ba4e89eb}, !- Handle
  InteriorFurnishings,                    !- Name
  ,                                       !- Surface Rendering Name
  {b3ce9221-c747-4d48-9ebe-bd95dcdf1136}; !- Layer 1

OS:Material,
  {b3ce9221-c747-4d48-9ebe-bd95dcdf1136}, !- Handle
  Std Wood 6inch,                         !- Name
  MediumSmooth,                           !- Roughness
  0.15,                                   !- Thickness {m}
  0.12,                                   !- Conductivity {W/m-K}
  540,                                    !- Density {kg/m3}
  1210,                                   !- Specific Heat {J/kg-K}
  0.9,                                    !- Thermal Absorptance
  0.7,                                    !- Solar Absorptance
  0.7;                                    !- Visible Absorptance

OS:InternalMass,
  {c94f8c50-8aca-41dc-a1b7-657bfd2d4518}, !- Handle
  SMstore7 Internal Mass,                 !- Name
  {35acb3a6-76aa-477f-b244-5f6bc08ee412}, !- Internal Mass Definition Name
  {1ca34be4-80bf-4483-bb54-192d2d6f265b}; !- Space or SpaceType Name

OS:Space,
  {1ca34be4-80bf-4483-bb54-192d2d6f265b}, !- Handle
  SMstore7,                               !- Name
  {4d70c104-7911-42f9-b4b2-2ef3dcc2e6f6}, !- Space Type Name
  ,                                       !- Default Construction Set Name
  ,                                       !- Default Schedule Set Name
  0,                                      !- Direction of Relative North {deg}
  0,                                      !- X Origin {m}
  0,                                      !- Y Origin {m}
  0,                                      !- Z Origin {m}
  {7cee30a4-af37-4dd8-ab38-713fba82c6dd}, !- Building Story Name
  {0bb4836e-4a0c-4e19-aad5-6bef3996776a}, !- Thermal Zone Name
  Yes,                                    !- Part of Total Floor Area
  {bea753e1-f8d6-41e3-955a-6cd38f050029}; !- Design Specification Outdoor Air Object Name

OS:ThermostatSetpoint:DualSetpoint,
  {f7ff27e4-cd6f-4ffe-8ac9-cf34de0eebaf}, !- Handle
  {8167b109-95f5-447d-b7bf-e2adeae0b779}, !- Name
  {4ecfa84c-c0b5-4a5a-a20e-0ac315eb796c}, !- Heating Setpoint Temperature Schedule Name
  {7848a239-d544-465e-900f-e287297104ad}; !- Cooling Setpoint Temperature Schedule Name

OS:Schedule:Compact,
  {e2597935-bb4a-4ec5-9d20-ca8cb5a4ad4b}, !- Handle
  BLDG_EQUIP_SCH,                         !- Name
  {f6617982-19d4-459e-9ae6-29661a769457}, !- Schedule Type Limits Name
  Through: 12/31,                         !- Field 1
  For: Weekdays,                          !- Field 2
  Until: 07:00,                           !- Field 3
  0.2,                                    !- Field 4
  Until: 08:00,                           !- Field 5
  0.4,                                    !- Field 6
  Until: 09:00,                           !- Field 7
  0.7,                                    !- Field 8
  Until: 18:00,                           !- Field 9
  0.9,                                    !- Field 10
  Until: 20:00,                           !- Field 11
  0.8,                                    !- Field 12
  Until: 21:00,                           !- Field 13
  0.7,                                    !- Field 14
  Until: 22:00,                           !- Field 15
  0.4,                                    !- Field 16
  Until: 24:00,                           !- Field 17
  0.2,                                    !- Field 18
  For: Saturday,                          !- Field 19
  Until: 07:00,                           !- Field 20
  0.15,                                   !- Field 21
  Until: 08:00,                           !- Field 22
  0.3,                                    !- Field 23
  Until: 09:00,                           !- Field 24
  0.5,                                    !- Field 25
  Until: 10:00,                           !- Field 26
  0.8,                                    !- Field 27
  Until: 18:00,                           !- Field 28
  0.9,                                    !- Field 29
  Until: 19:00,                           !- Field 30
  0.7,                                    !- Field 31
  Until: 21:00,                           !- Field 32
  0.5,                                    !- Field 33
  Until: 22:00,                           !- Field 34
  0.3,                                    !- Field 35
  Until: 24:00,                           !- Field 36
  0.15,                                   !- Field 37
  For: SummerDesignDay,                   !- Field 38
  Until: 24:00,                           !- Field 39
  1.0,                                    !- Field 40
  For: WinterDesignDay,                   !- Field 41
  Until: 24:00,                           !- Field 42
  0.0,                                    !- Field 43
  For: Sunday Holidays AllOtherDays,      !- Field 44
  Until: 08:00,                           !- Field 45
  0.15,                                   !- Field 46
  Until: 10:00,                           !- Field 47
  0.3,                                    !- Field 48
  Until: 12:00,                           !- Field 49
  0.6,                                    !- Field 50
  Until: 17:00,                           !- Field 51
  0.8,                                    !- Field 52
  Until: 18:00,                           !- Field 53
  0.6,                                    !- Field 54
  Until: 19:00,                           !- Field 55
  0.4,                                    !- Field 56
  Until: 24:00,                           !- Field 57
  0.15;                                   !- Field 58

OS:ScheduleTypeLimits,
  {f6617982-19d4-459e-9ae6-29661a769457}, !- Handle
  Fraction,                               !- Name
  0,                                      !- Lower Limit Value {BasedOnField A4}
  1,                                      !- Upper Limit Value {BasedOnField A4}
  CONTINUOUS;                             !- Numeric Type

OS:Schedule:Compact,
  {aa606c7b-21c2-4482-8016-c5308bfb2ed7}, !- Handle
  ACTIVITY_SCH,                           !- Name
  {ea209671-fe70-477f-8d05-ff2d98769195}, !- Schedule Type Limits Name
  Through: 12/31,                         !- Field 1
  For: AllDays,                           !- Field 2
  Until: 24:00,                           !- Field 3
  120.;                                   !- Field 4

OS:ScheduleTypeLimits,
  {3da7188c-483c-43b2-a10e-3914ad3e7e44}, !- Handle
  {65c1e9a2-9fa3-4e89-9aa5-9b378303f9a8}; !- Name

OS:Construction,
  {389ec36f-0fec-4b27-97ab-74ca396c945c}, !- Handle
  IEAD Non-res Roof,                      !- Name
  ,                                       !- Surface Rendering Name
  {c38c1ae3-a2c2-4647-bf28-f15e4a6b5553}, !- Layer 1
  {b0d0e109-da78-44f9-a14f-7a84cb2cfc5f}, !- Layer 2
  {8a860c9c-5479-4b3e-a96f-1b2c6031277b}; !- Layer 3

OS:Material,
  {c38c1ae3-a2c2-4647-bf28-f15e4a6b5553}, !- Handle
  Roof Membrane,                          !- Name
  VeryRough,                              !- Roughness
  0.0095,                                 !- Thickness {m}
  0.16,                                   !- Conductivity {W/m-K}
  1121.29,                                !- Density {kg/m3}
  1460,                                   !- Specific Heat {J/kg-K}
  0.9,                                    !- Thermal Absorptance
  0.7,                                    !- Solar Absorptance
  0.7;                                    !- Visible Absorptance

OS:Material,
  {b0d0e109-da78-44f9-a14f-7a84cb2cfc5f}, !- Handle
  IEAD NonRes Roof Insulation,            !- Name
  MediumRough,                            !- Roughness
  0.127338688569477,                      !- Thickness {m}
  0.049,                                  !- Conductivity {W/m-K}
  265,                                    !- Density {kg/m3}
  836.8,                                  !- Specific Heat {J/kg-K}
  0.9,                                    !- Thermal Absorptance
  0.7,                                    !- Solar Absorptance
  0.7;                                    !- Visible Absorptance

OS:Material,
  {8a860c9c-5479-4b3e-a96f-1b2c6031277b}, !- Handle
  Metal Decking,                          !- Name
  MediumSmooth,                           !- Roughness
  0.0015,                                 !- Thickness {m}
  45.006,                                 !- Conductivity {W/m-K}
  7680,                                   !- Density {kg/m3}
  418.4,                                  !- Specific Heat {J/kg-K}
  0.9,                                    !- Thermal Absorptance
  0.7,                                    !- Solar Absorptance
  0.3;                                    !- Visible Absorptance

OS:Space,