
OS:Version,
  {69599189-182b-46f2-8240-49517d523366}, !- Handle
  1.8.0;                                  !- Version Identifier

OS:Site,
  {dff23d17-5bf1-423a-bd0a-1e3b54f84481}, !- Handle
  USA IL-CHICAGO-OHARE,                   !- Name
  41.77,                                  !- Latitude {deg}
  -87.75,                                 !- Longitude {deg}
  -6,                                     !- Time Zone {hr}
  190,                                    !- Elevation {m}
  City;                                   !- Terrain

OS:SimulationControl,
  {b2015bd0-ab79-40eb-9db3-c4cc98f7d5bc}, !- Handle
  Yes,                                    !- Do Zone Sizing Calculation
  Yes,                                    !- Do System Sizing Calculation
  Yes,                                    !- Do Plant Sizing Calculation
  No,                                     !- Run Simulation for Sizing Periods
  Yes,                                    !- Run Simulation for Weather File Run Periods
  0.04,                                   !- Loads Convergence Tolerance Value
  0.2,                                    !- Temperature Convergence Tolerance Value {deltaC}
  FullInteriorAndExterior,                !- Solar Distribution
  25,                                     !- Maximum Number of Warmup Days
  6;                                      !- Minimum Number of Warmup Days

OS:SpaceInfiltration:DesignFlowRate,
  {9917f9ed-0514-49bf-9d95-784b6b51df73}, !- Handle
  LGstore2_Infiltration,                  !- Name
  {82c93d91-f030-4c9f-82f5-d7009518e8ff}, !- Space or SpaceType Name
  {6ed92849-887a-4261-8f9a-7b7955ebb75c}, !- Schedule Name
  Flow/ExteriorArea,                      !- Design Flow Rate Calculation Method
  ,                                       !- Design Flow Rate {m3/s}
  ,                                       !- Flow per Space Floor Area {m3/s-m2}
  0.000302,                               !- Flow per Exterior Surface Area {m3/s-m2}
  ,                                       !- Air Changes per Hour {1/hr}
  1,                                      !- Constant Term Coefficient
  0,                                      !- Temperature Term Coefficient
  0,                                      !- Velocity Term Coefficient
  0;                                      !- Velocity Squared Term Coefficient

OS:Space,
  {82c93d91-f030-4c9f-82f5-d7009518e8ff}, !- Handle
  LGstore2,                               !- Name
  {a6ecadb1-bd27-4dda-acd7-722a5d20b38c}, !- Space Type Name
  ,                                       !- Default Construction Set Name
  ,                                       !- Default Schedule Set Name
  0,                                      !- Direction of Relative North {deg}
  0,                                      !- X Origin {m}
  0,                                      !- Y Origin {m}
  0,                                      !- Z Origin {m}
  {11c909ac-6150-47c3-a626-1f10e3664ed3}, !- Building Story Name
  {0962ac19-8200-460a-b886-1c3f01fe06c1}, !- Thermal Zone Name
  Yes,                                    !- Part of Total Floor Area
  {e6ae4cef-f382-47ba-9e94-765e255a0cc7}; !- Design Specification Outdoor Air Object Name

OS:ThermostatSetpoint:DualSetpoint,
  {fb120ce1-522f-43d0-8d8a-e0c22335bb3a}, !- Handle
  {c6071687-466e-44a5-8a9b-12e0436cb441}, !- Name
  {4b040a7b-e158-4656-9697-2c079d158d48}, !- Heating Setpoint Temperature Schedule Name
  {9e19ba65-9967-4b63-b982-08802a0f69f5}; !- Cooling Setpoint Temperature Schedule Name

OS:Schedule:Compact,
  {4b040a7b-e158-4656-9697-2c079d158d48}, !- Handle
  HTGSETP_SCH,                            !- Name
  {794be391-c01f-4187-bccf-0e0c5353f8d2}, !- Schedule Type Limits Name
  Through: 12/31,                         !- Field 1
  For: Weekdays,                          !- Field 2
  Until: 06:00,                           !- Field 3
  15.6,                                   !- Field 4
  Until: 21:00,                           !- Field 5
  21.0,                                   !- Field 6
  Until: 24:00,                           !- Field 7
  15.6,                                   !- Field 8
  For SummerDesignDay,                    !- Field 9
  Until: 24:00,                           !- Field 10
  15.6,                                   !- Field 11
  For WinterDesignDay,                    !- Field 12
  Until: 24:00,                           !- Field 13
  21.0,                                   !- Field 14
  For: Saturday,                          !- Field 15
  Until: 06:00,                           !- Field 16
  15.6,                                   !- Field 17
  Until: 22:00,                           !- Field 18
  21.0,                                   !- Field 19
  Until: 24:00,                           !- Field 20
  15.6,                                   !- Field 21
  For: AllOtherDays,                      !- Field 22
  Until:  8:00,                           !- Field 23
  15.6,                                   !- Field 24
  Until: 19:00,                           !- Field 25
  21.,                                    !- Field 26
  Until: 24:00,                           !- Field 27
  15.6;                                   !- Field 28

OS:ScheduleTypeLimits,
  {794be391-c01f-4187-bccf-0e0c5353f8d2}, !- Handle
  Temperature,                            !- Name
  -60,                                    !- Lower Limit Value {BasedOnField A4}
  200,                                    !- Upper Limit Value {BasedOnField A4}
  CONTINUOUS,                             !- Numeric Type
  Temperature;                            !- Unit Type

OS:Schedule:Compact,
  {9e19ba65-9967-4b63-b982-08802a0f69f5}, !- Handle
  CLGSETP_SCH,                            !- Name
  {794be391-c01f-4187-bccf-0e0c5353f8d2}, !- Schedule Type Limits Name
  Through: 12/31,                         !- Field 1
  For: Weekdays SummerDesignDay,          !- Field 2
  Until: 06:00,                           !- Field 3
  30.0,                                   !- Field 4
  Until: 21:00,                           !- Field 5
  24.0,                                   !- Field 6
  Until: 24:00,                           !- Field 7
  30.0,                                   !- Field 8
  For: Saturday,                          !- Field 9
  Until: 06:00,                           !- Field 10
  30.0,                                   !- Field 11
  Until: 22:00,                           !- Field 12
  24.0,                                   !- Field 13
  Until: 24:00,                           !- Field 14
  30.0,                                   !- Field 15
  For WinterDesignDay,                    !- Field 16
  Until: 24:00,                           !- Field 17
  30.0,                                   !- Field 18
  For: Sunday Holidays AllOtherDays,      !- Field 19
  Until: 8:00,                            !- Field 20
  30.0,                                   !- Field 21
  Until: 19:00,                           !- Field 22
  24.0,                                   !- Field 23
  Until: 24:00,                           !- Field 24
  30.0;                                   !- Field 25

OS:Schedule:Compact,
  {6ed92849-887a-4261-8f9a-7b7955ebb75c}, !- Handle
  INFIL_HALF_ON_SCH,                      !- Name
  {0f151f87-163c-428c-ad3d-a9bb3796383e}, !- Schedule Type Limits Name
  Through: 12/31,                         !- Field 1
  For: Weekdays SummerDesignDay,          !- Field 2
  Until: 06:00,                           !- Field 3
  1.0,                                    !- Field 4
  Until: 21:00,                           !- Field 5
  0.5,                                    !- Field 6
  Until: 24:00,                           !- Field 7
  1.0,                                    !- Field 8
  For: Saturday,                          !- Field 9
  Until: 06:00,                           !- Field 10
  1.0,                                    !- Field 11
  Until: 22:00,                           !- Field 12
  0.5,                                    !- Field 13
  Until: 24:00,                           !- Field 14
  1.0,                                    !- Field 15
  For: WinterDesignDay,                   !- Field 16
  Until: 24:00,                           !- Field 17
  1.0,                                    !- Field 18
  For: Sunday Holidays AllOtherDays,      !- Field 19
  Until: 08:00,                           !- Field 20
  1.0,                                    !- Field 21
  Until: 17:00,                           !- Field 22
  0.5,                                    !- Field 23
  Until: 24:00,                           !- Field 24
  1.0;                                    !- Field 25

OS:ScheduleTypeLimits,
  {0f151f87-163c-428c-ad3d-a9bb3796383e}, !- Handle
  Fraction,                               !- Name
  0,                                      !- Lower Limit Value {BasedOnField A4}
  1,                                      !- Upper Limit Value {BasedOnField A4}
  CONTINUOUS;                             !- Numeric Type

OS:ElectricEquipment:Definition,
  {bba01cd3-06fb-4dd2-8cfd-dbccb9c33c0a}, !- Handle
  SMstore8_MiscPlug_Equip Definition,     !- Name
  Watts/Area,                             !- Design Level Calculation Method
  ,                                       !- Design Level {W}
  4.3,                                    !- Watts per Space Floor Area {W/m2}
  ,                                       !- Watts per Person {W/person}
  0,                                      !- Fraction Latent
  0.5,                                    !- Fraction Radiant
  0;                                      !- Fraction Lost

OS:ElectricEquipment,
  {619cad4f-dff9-4156-9a45-cc2e8a7904ae}, !- Handle
  SMstore8_MiscPlug_Equip,                !- Name
  {bba01cd3-06fb-4dd2-8cfd-dbccb9c33c0a}, !- Electric Equipment Definition Name
  {70426140-4c7b-4b75-8420-df6e1599df02}, !- Space or SpaceType Name
  {178c9e64-862e-47bd-a407-42f2e8cb1ecf}, !- Schedule Name
  ,                                       !- Multiplier
  MiscPlug;                               !- End-Use Subcategory

OS:Space,
  {70426140-4c7b-4b75-8420-df6e1599df02}, !- Handle
  SMstore8,                               !- Name
  {a6ecadb1-bd27-4dda-acd7-722a5d20b38c}, !- Space Type Name
  ,                                       !- Default Construction Set Name
  ,                                       !- Default Schedule Set Name
  0,                                      !- Direction of Relative North {deg}
  0,                                      !- X Origin {m}
  0,                                      !- Y Origin {m}
  0,                                      !- Z Origin {m}
  {11c909ac-6150-47c3-a626-1f10e3664ed3}, !- Building Story Name
  {bbe3aa81-b8f7-439a-9322-a943776637a3}, !- Thermal Zone Name
  Yes,                                    !- Part of Total Floor Area
  {b724c7d4-684b-4bae-ad1d-b40ad944a9d2}; !- Design Specification Outdoor Air Object Name

OS:ThermostatSetpoint:DualSetpoint,
  {44af909a-9904-4aea-9534-08fac55f4642}, !- Handle
  {57c65dd1-ef5c-4eb6-9bfb-51000b122287}, !- Name
  {4b040a7b-e158-4656-9697-2c079d158d48}, !- Heating Setpoint Temperature Schedule Name
  {9e19ba65-9967-4b63-b982-08802a0f69f5}; !- Cooling Setpoint Temperature Schedule Name

OS:Schedule:Compact,
  {178c9e64-862e-47bd-a407-42f2e8cb1ecf}, !- Handle
  BLDG_EQUIP_SCH,                         !- Name
  {0f151f87-163c-428c-ad3d-a9bb3796383e}, !- Schedule Type Limits Name
  Through: 12/31,                         !- Field 1
  For: Weekdays,                          !- Field 2
  Until: 07:00,                           !- Field 3
  0.2,                                    !- Field 4
  Until: 08:00,                           !- Field 5
  0.4,                                    !- Field 6
  Until: 09:00,                           !- Field 7
  0.7,                                    !- Field 8
  Until: 18:00,                           !- Field 9
  0.9,                                    !- Field 10
  Until: 20:00,                           !- Field 11
  0.8,                                    !- Field 12
  Until: 21:00,                           !- Field 13
  0.7,                                    !- Field 14
  Until: 22:00,                           !- Field 15
  0.4,                                    !- Field 16
  Until: 24:00,                           !- Field 17
  0.2,                                    !- Field 18
  For: Saturday,                          !- Field 19
  Until: 07:00,                           !- Field 20
  0.15,                                   !- Field 21
  Until: 08:00,                           !- Field 22
  0.3,                                    !- Field 23
  Until: 09:00,                           !- Field 24
  0.5,                                    !- Field 25
  Until: 10:00,                           !- Field 26
  0.8,                                    !- Field 27
  Until: 18:00,                           !- Field 28
  0.9,                                    !- Field 29
  Until: 19:00,                           !- Field 30
  0.7,                                    !- Field 31
  Until: 21:00,                           !- Field 32
  0.5,                                    !- Field 33
  Until: 22:00,                           !- Field 34
  0.3,                                    !- Field 35
  Until: 24:00,                           !- Field 36
  0.15,                                   !- Field 37
  For: SummerDesignDay,                   !- Field 38
  Until: 24:00,                           !- Field 39
  1.0,                                    !- Field 40
  For: WinterDesignDay,                   !- Field 41
  Until: 24:00,                           !- Field 42
  0.0,                                    !- Field 43
  For: Sunday Holidays AllOtherDays,      !- Field 44
  Until: 08:00,                           !- Field 45
  0.15,                                   !- Field 46
  Until: 10:00,                           !- Field 47
  0.3,                                    !- Field 48
  Until: 12:00,                           !- Field 49
  0.6,                                    !- Field 50
  Until: 17:00,                           !- Field 51
  0.8,                                    !- Field 52
  Until: 18:00,                           !- Field 53
  0.6,                                    !- Field 54
  Until: 19:00,                           !- Field 55
  0.4,                                    !- Field 56
  Until: 24:00,                           !- Field 57
  0.15;                                   !- Field 58

OS:ElectricEquipment:Definition,
  {ee208823-1788-4983-ac65-929a40062ea3}, !- Handle
  SMstore4_MiscPlug_Equip Definition,     !- Name
  Watts/Area,                             !- Design Level Calculation Method
  ,                                       !- Design Level {W}
  4.3,                                    !- Watts per Space Floor Area {W/m2}
  ,                                       !- Watts per Person {W/person}
  0,                                      !- Fraction Latent
  0.5,                                    !- Fraction Radiant
  0;                                      !- Fraction Lost

OS:ElectricEquipment,
  {e9c6f889-f05a-4149-94dd-6bf49ba5e1d2}, !- Handle
  SMstore4_MiscPlug_Equip,                !- Name
  {ee208823-1788-4983-ac65-929a40062ea3}, !- Electric Equipment Definition Name
  {270e7034-4870-4498-9c72-4fb6db566da4}, !- Space or SpaceType Name
  {178c9e64-862e-47bd-a407-42f2e8cb1ecf}, !- Schedule Name
  ,                                       !- Multiplier
  MiscPlug;                               !- End-Use Subcategory

OS:Space,
  {270e7034-4870-4498-9c72-4fb6db566da4}, !- Handle
  SMstore4,                               !- Name
  {a6ecadb1-bd27-4dda-acd7-722a5d20b38c}, !- Space Type Name
  ,                                       !- Default Construction Set Name
  ,                                       !- Default Schedule Set Name
  0,                                      !- Direction of Relative North {deg}
  0,                                      !- X Origin {m}
  0,                                      !- Y Origin {m}
  0,                                      !- Z Origin {m}
  {11c909ac-6150-47c3-a626-1f10e3664ed3}, !- Building Story Name
  {0962ac19-8200-460a-b886-1c3f01fe06c1}, !- Thermal Zone Name
  Yes,                                    !- Part of Total Floor Area
  {72b12a09-3089-4d14-8033-efb4888835af}; !- Design Specification Outdoor Air Object Name

OS:ThermostatSetpoint:DualSetpoint,
  {4d2c4c7b-26fc-405d-b629-a83f03d36aea}, !- Handle
  {dcf029e1-99c5-4a24-9e1f-596836266e08}, !- Name
  {4b040a7b-e158-4656-9697-2c079d158d48}, !- Heating Setpoint Temperature Schedule Name
  {9e19ba65-9967-4b63-b982-08802a0f69f5}; !- Cooling Setpoint Temperature Schedule Name

OS:Material,
  {bd120bab-8252-4451-b636-01a480c032d8}, !- Handle
  MAT-CC05 4 HW CONCRETE,                 !- Name
  Rough,                                  !- Roughness
  0.1016,                                 !- Thickness {m}
  1.311,                                  !- Conductivity {W/m-K}
  2240,                                   !- Density {kg/m3}
  836.8,                                  !- Specific Heat {J/kg-K}
  0.9,                                    !- Thermal Absorptance
  0.7,                                    !- Solar Absorptance
  0.7;                                    !- Visible Absorptance

OS:Surface,
  {c17e0453-25ef-4a33-b683-651e6b71adfb}, !- Handle
  SMstore6_Wall_1,                        !- Name
  Wall,                                   !- Surface Type
  {23298fba-b12a-4d43-8eae-52794a1adb52}, !- Construction Name
  {3ea85912-38c4-4b9e-8329-82960bca1e57}, !- Space Name
  Outdoors,                               !- Outside Boundary Condition
  ,                                       !- Outside Boundary Condition Object
  SunExposed,                             !- Sun Exposure
  WindExposed,                            !- Wind Exposure
  ,                                       !- View Factor to Ground
  ,                                       !- Number of Vertices
  68.58, 0, 5.18,                         !- X,Y,Z Vertex 1 {m}
  68.58, 0, 0,                            !- X,Y,Z Vertex 2 {m}
  76.2, 0, 0,                             !- X,Y,Z Vertex 3 {m}
  76.2, 0, 5.18;                          !- X,Y,Z Vertex 4 {m}

OS:Construction,
  {23298fba-b12a-4d43-8eae-52794a1adb52}, !- Handle
  Steel Frame Non-res Ext Wall,           !- Name
  ,                                       !- Surface Rendering Name
  {f2f1de3b-0609-4bfe-bce8-7c74b4341802}, !- Layer 1
  {2c9ff4af-3b01-4de8-8df9-ece9129c19e1}, !- Layer 2
  {c430ff8b-6e26-4908-96cf-b0ea6487a915}; !- Layer 3

OS:Material,
  {f2f1de3b-0609-4bfe-bce8-7c74b4341802}, !- Handle
  Wood Siding,                            !- Name
  MediumSmooth,                           !- Roughness
  0.01,                                   !- Thickness {m}
  0.11,                                   !- Conductivity {W/m-K}
  544.62,                                 !- Density {kg/m3}
  1210,                                   !- Specific Heat {J/kg-K}
  0.9,                                    !- Thermal Absorptance
  0.78,                                   !- Solar Absorptance
  0.78;                                   !- Visible Absorptance

OS:Material,
  {2c9ff4af-3b01-4de8-8df9-ece9129c19e1}, !- Handle
  Steel Frame NonRes Wall Insulation,     !- Name
  MediumRough,                            !- Roughness
  0.0870564552646045,                     !- Thickness {m}
  0.049,                                  !- Conductivity {W/m-K}
  265,                                    !- Density {kg/m3}
  836.8,                                  !- Specific Heat {J/kg-K}
  0.9,                                    !- Thermal Absorptance
  0.7,                                    !- Solar Absorptance
  0.7;                                    !- Visible Absorptance

OS:Material,
  {c430ff8b-6e26-4908-96cf-b0ea6487a915}, !- Handle
  1/2IN Gypsum,                           !- Name
  Smooth,                                 !- Roughness
  0.0127,                                 !- Thickness {m}
  0.16,                                   !- Conductivity {W/m-K}
  784.9,                                  !- Density {kg/m3}
  830,                                    !- Specific Heat {J/kg-K}
  0.9,                                    !- Thermal Absorptance
  0.92,                                   !- Solar Absorptance
  0.92;                                   !- Visible Absorptance

OS:Space,
  {3ea85912-38c4-4b9e-8329-82960bca1e57}, !- Handle
  SMstore6,                               !- Name
  {a6ecadb1-bd27-4dda-acd7-722a5d20b38c}, !- Space Type Name
  ,                                       !- Default Construction Set Name
  ,                                       !- Default Schedule Set Name
  0,                                      !- Direction of Relative North {deg}
  0,                                      !- X Origin {m}
  0,                                      !- Y Origin {m}
  0,                                      !- Z Origin {m}
  {11c909ac-6150-47c3-a626-1f10e3664ed3}, !- Building Story Name
  {0962ac19-8200-460a-b886-1c3f01fe06c1}, !- Thermal Zone Name
  Yes,                                    !- Part of Total Floor Area
  {d552f53e-a1c9-4327-b63c-5433a05a7fb5}; !- Design Specification Outdoor Air Object Name

OS:ThermostatSetpoint:DualSetpoint,
  {a01c1151-5a42-4b7a-a9c6-7ddca867e400}, !- Handle
  {05b50635-b18e-4c4d-894c-787a448c10e9}, !- Name
  {4b040a7b-e158-4656-9697-2c079d158d48}, !- Heating Setpoint Temperature Schedule Name
  {9e19ba65-9967-4b63-b982-08802a0f69f5}; !- Cooling Setpoint Temperature Schedule Name

OS:Surface,
  {861a9e1f-e909-4f18-8873-27e3b5ceb1bb}, !- Handle
  SMstore1_Floor,                         !- Name
  Floor,                                  !- Surface Type
  {7fdb77f5-136d-4acf-b2c8-56889fc000b3}, !- Construction Name
  {518eab40-5866-4b17-9a4b-927e1d4ad1fe}, !- Space Name
  Ground,                                 !- Outside Boundary Condition
  ,                                       !- Outside Boundary Condition Object
  NoSun,                                  !- Sun Exposure
  NoWind,                                 !- Wind Exposure
  ,                                       !- View Factor to Ground
  ,                                       !- Number of Vertices
  22.86, 22.86, 0,                        !- X,Y,Z Vertex 1 {m}
  22.86, 0, 0,                            !- X,Y,Z Vertex 2 {m}
  15.24, 0, 0,                            !- X,Y,Z Vertex 3 {m}
  15.24, 22.86, 0;                        !- X,Y,Z Vertex 4 {m}

OS:Construction,
  {7fdb77f5-136d-4acf-b2c8-56889fc000b3}, !- Handle
  ext-slab,                               !- Name
  ,                                       !- Surface Rendering Name
  {425d2a98-67d3-4587-9582-a98c49f7b155}; !- Layer 1

OS:Material,
  {425d2a98-67d3-4587-9582-a98c49f7b155}, !- Handle
  HW CONCRETE,                            !- Name
  Rough,                                  !- Roughness
  0.1016,                                 !- Thickness {m}
  1.311,                                  !- Conductivity {W/m-K}
  2240,                                   !- Density {kg/m3}
  836.8,                                  !- Specific Heat {J/kg-K}
  0.9,                                    !- Thermal Absorptance
  0.7,                                    !- Solar Absorptance
  0.7;                                    !- Visible Absorptance

OS:Space,
  {518eab40-5866-4b17-9a4b-927e1d4ad1fe}, !- Handle
  SMstore1,                               !- Name
  {a6ecadb1-bd27-4dda-acd7-722a5d20b38c}, !- Space Type Name
  ,                                       !- Default Construction Set Name
  ,                                       !- Default Schedule Set Name
  0,                                      !- Direction of Relative North {deg}
  0,                                      !- X Origin {m}
  0,                                      !- Y Origin {m}
  0,                                      !- Z Origin {m}
  {11c909ac-6150-47c3-a626-1f10e3664ed3}, !- Building Story Name
  {0962ac19-8200-460a-b886-1c3f01fe06c1}, !- Thermal Zone Name
  Yes,                                    !- Part of Total Floor Area
  {1685d597-a16e-46f9-874a-3544293c952d}; !- Design Specification Outdoor Air Object Name

OS:ThermostatSetpoint:DualSetpoint,
  {cd61ef77-44d2-400d-9cf4-d7558e68189a}, !- Handle
  {48fc0a92-13fc-4099-ab5f-2b87f2276b06}, !- Name
  {4b040a7b-e158-4656-9697-2c079d158d48}, !- Heating Setpoint Temperature Schedule Name
  {9e19ba65-9967-4b63-b982-08802a0f69f5}; !- Cooling Setpoint Temperature Schedule Name

OS:SubSurface,
  {7db086ba-d7a3-4a45-b376-c3f162758a16}, !- Handle
  SMstore5_Wall_1_Window_1,               !- Name
  FixedWindow,                            !- Sub Surface Type
  {0ea43139-294b-4350-88cc-34831c2bd934}, !- Construction Name
  {db41f58e-5804-42bd-8859-3ecd4dedb756}, !- Surface Name
  ,                                       !- Outside Boundary Condition Object
  ,                                       !- View Factor to Ground
  ,                                       !- Shading Control Name
  ,                                       !- Frame and Divider Name
  1,                                      !- Multiplier
  ,                                       !- Number of Vertices
  61.57, 0, 2.43,                         !- X,Y,Z Vertex 1 {m}
  61.57, 0, 0.91,                         !- X,Y,Z Vertex 2 {m}
  63.7, 0, 0.91,                          !- X,Y,Z Vertex 3 {m}
  63.7, 0, 2.43;                          !- X,Y,Z Vertex 4 {m}

OS:Construction,
  {0ea43139-294b-4350-88cc-34831c2bd934}, !- Handle
  Window Non-res Fixed,                   !- Name
  ,                                       !- Surface Rendering Name
  {3d2753b4-a085-4145-b825-cb690f8a7eb8}; !- Layer 1

OS:WindowMaterial:SimpleGlazingSystem,
  {3d2753b4-a085-4145-b825-cb690f8a7eb8}, !- Handle
  NonRes Fixed Assembly Window,           !- Name
  3.23646,                                !- U-Factor {W/m2-K}
  0.39;                                   !- Solar Heat Gain Coefficient

OS:Surface,
  {db41f58e-5804-42bd-8859-3ecd4dedb756}, !- Handle
  SMstore5_Wall_1,                        !- Name
  Wall,                                   !- Surface Type
  {23298fba-b12a-4d43-8eae-52794a1adb52}, !- Construction Name
  {05695e2a-c710-40e0-aca9-34d1e02f657c}, !- Space Name
  Outdoors,                               !- Outside Boundary Condition
  ,                                       !- Outside Boundary Condition Object
  SunExposed,                             !- Sun Exposure
  WindExposed,                            !- Wind Exposure
  ,                                       !- View Factor to Ground
  ,                                       !- Number of Vertices
  60.96, 0, 5.18,                         !- X,Y,Z Vertex 1 {m}
  60.96, 0, 0,                            !- X,Y,Z Vertex 2 {m}
  68.58, 0, 0,                            !- X,Y,Z Vertex 3 {m}
  68.58, 0, 5.18;                         !- X,Y,Z Vertex 4 {m}

OS:Space,
  {05695e2a-c710-40e0-aca9-34d1e02f657c}, !- Handle
  SMstore5,                               !- Name
  {a6ecadb1-bd27-4dda-acd7-722a5d20b38c}, !- Space Type Name
  ,                                       !- Default Construction Set Name
  ,                                       !- Default Schedule Set Name
  0,                                      !- Direction of Relative North {deg}
  0,                                      !- X Origin {m}
  0,                                      !- Y Origin {m}
  0,                                      !- Z Origin {m}
  {11c909ac-6150-47c3-a626-1f10e3664ed3}, !- Building Story Name
  {0962ac19-8200-460a-b886-1c3f01fe06c1}, !- Thermal Zone Name
  Yes,                                    !- Part of Total Floor Area
  {3ddd07c0-fba3-46be-b205-3909ffd2e439}; !- Design Specification Outdoor Air Object Name

OS:ThermostatSetpoint:DualSetpoint,
  {0fb79517-d783-424a-8313-5abd3941b2f8}, !- Handle
  {6da9b471-f17b-4f85-8765-d37cae911788}, !- Name
  {4b040a7b-e158-4656-9697-2c079d158d48}, !- Heating Setpoint Temperature Schedule Name
  {9e19ba65-9967-4b63-b982-08802a0f69f5}; !- Cooling Setpoint Temperature Schedule Name

OS:Meter,
  {7322bca3-800a-45a6-a7a4-42a44f5308ee}, !- Handle
  WaterSystems:Gas,                       !- Name
  hourly,                                 !- Reporting Frequency
  False,                                  !- Meter File Only
  False;                                  !- Cumulative

OS:DesignSpecification:OutdoorAir,
  {1685d597-a16e-46f9-874a-3544293c952d}, !- Handle
  SZ DSOA SMstore1,                       !- Name
  ,                                       !- Outdoor Air Method
  ,                                       !- Outdoor Air Flow per Person {m3/s-person}
  0.00152,                                !- Outdoor Air Flow per Floor Area {m3/s-m2}
  ,                                       !- Outdoor Air Flow Rate {m3/s}
  ,                                       !- Outdoor Air Flow Air Changes per Hour {1/hr}
  ;                                       !- Outdoor Air Flow Rate Fraction Schedule Name

OS:Surface,
  {26097218-2d1e-44c1-8aec-2d97c7fea7bf}, !- Handle
  SMstore2_Wall_4,                        !- Name
  Wall,                                   !- Surface Type
  {022327a2-0870-4cd6-b3da-92c0980e3565}, !- Construction Name
  {f5244dbc-18fb-415b-8743-0e43d14a80e5}, !- Space Name
  Surface,                                !- Outside Boundary Condition
  {f42d0693-b01a-4a08-841b-76e2416cfa39}, !- Outside Boundary Condition Object
  NoSun,                                  !- Sun Exposure
  NoWind,                                 !- Wind Exposure
  ,                                       !- View Factor to Ground
  ,                                       !- Number of Vertices