
OS:Version,
  {2e345296-879e-4e81-81ff-58671da9f6e6}, !- Handle
  1.8.5;                                  !- Version Identifier

OS:Site,
  {c4f6010b-556f-4aa0-998e-9eb08dd696c6}, !- Handle
  USA IL-CHICAGO-OHARE,                   !- Name
  41.77,                                  !- Latitude {deg}
  -87.75,                                 !- Longitude {deg}
  -6,                                     !- Time Zone {hr}
  190,                                    !- Elevation {m}
  City;                                   !- Terrain

OS:SimulationControl,
  {a1cf35e5-2e8b-4781-8557-3e6545d44ce4}, !- Handle
  Yes,                                    !- Do Zone Sizing Calculation
  Yes,                                    !- Do System Sizing Calculation
  Yes,                                    !- Do Plant Sizing Calculation
  No,                                     !- Run Simulation for Sizing Periods
  Yes,                                    !- Run Simulation for Weather File Run Periods
  0.04,                                   !- Loads Convergence Tolerance Value
  0.2,                                    !- Temperature Convergence Tolerance Value {deltaC}
  FullInteriorAndExterior,                !- Solar Distribution
  25,                                     !- Maximum Number of Warmup Days
  6;                                      !- Minimum Number of Warmup Days

OS:Curve:Biquadratic,
  {b4cf60ad-8f98-4c71-ad3a-41fcd499c361}, !- Handle
  Measured_LowSpeedCoolEIRLSFT,           !- Name
  1.1389,                                 !- Coefficient1 Constant
  -0.04518,                               !- Coefficient2 x
  0.0014298,                              !- Coefficient3 x**2
  0.006044,                               !- Coefficient4 y
  0.0006745,                              !- Coefficient5 y**2
  -0.0012325,                             !- Coefficient6 x*y
  11.1,                                   !- Minimum Value of x {BasedOnField A2}
  29.4,                                   !- Maximum Value of x {BasedOnField A2}
  10,                                     !- Minimum Value of y {BasedOnField A3}
  50.3;                                   !- Maximum Value of y {BasedOnField A3}

OS:InternalMass:Definition,
  {de508902-b081-4f14-9197-7b194ae621bf}, !- Handle
  SMstore5 Internal Mass Definition,      !- Name
  {a7207b89-38c7-41a4-84b2-4384d2a246b7}, !- Construction Name
  SurfaceArea,                            !- Design Level Calculation Method
  348.3864,                               !- Surface Area {m2}
  ,                                       !- Surface Area per Space Floor Area {dimensionless}
  ;                                       !- Surface Area per Person {m2/person}

OS:Construction,
  {a7207b89-38c7-41a4-84b2-4384d2a246b7}, !- Handle
  InteriorFurnishings,                    !- Name
  ,                                       !- Surface Rendering Name
  {187ebd5a-d39d-4ce6-9bdc-db9aaabd9d1a}; !- Layer 1

OS:Material,
  {187ebd5a-d39d-4ce6-9bdc-db9aaabd9d1a}, !- Handle
  Std Wood 6inch,                         !- Name
  MediumSmooth,                           !- Roughness
  0.15,                                   !- Thickness {m}
  0.12,                                   !- Conductivity {W/m-K}
  540,                                    !- Density {kg/m3}
  1210,                                   !- Specific Heat {J/kg-K}
  0.9,                                    !- Thermal Absorptance
  0.7,                                    !- Solar Absorptance
  0.7;                                    !- Visible Absorptance

OS:InternalMass,
  {77b5c305-dee4-47aa-9779-7787cb09aa0e}, !- Handle
  SMstore5 Internal Mass,                 !- Name
  {de508902-b081-4f14-9197-7b194ae621bf}, !- Internal Mass Definition Name
  {c38b1bbe-25a8-4eea-a35f-750cf9901969}; !- Space or SpaceType Name

OS:Space,
  {c38b1bbe-25a8-4eea-a35f-750cf9901969}, !- Handle
  SMstore5,                               !- Name
  {b8409f33-e32c-4b89-92e0-81ce5fa0aba3}, !- Space Type Name
  ,                                       !- Default Construction Set Name
  ,                                       !- Default Schedule Set Name
  0,                                      !- Direction of Relative North {deg}
  0,                                      !- X Origin {m}
  0,                                      !- Y Origin {m}
  0,                                      !- Z Origin {m}
  {323ebc1e-7638-449d-8b47-00843660781f}, !- Building Story Name
  {8412962a-beda-4c76-9587-a63a57dda760}, !- Thermal Zone Name
  Yes,                                    !- Part of Total Floor Area
  {ecfbb227-cc91-4d4c-8ed6-822b266f0729}; !- Design Specification Outdoor Air Object Name

OS:ThermostatSetpoint:DualSetpoint,
  {0fbc4225-368c-45be-8982-70dd52ba6337}, !- Handle
  {589643fb-ecb7-4bfb-8384-ca33f99491e9}, !- Name
  {346fa3f7-7534-466a-81f6-cfcd11a74b92}, !- Heating Setpoint Temperature Schedule Name
  {fbab105e-49f7-4e59-8269-d5952b62b3b6}; !- Cooling Setpoint Temperature Schedule Name

OS:Schedule:Compact,
  {346fa3f7-7534-466a-81f6-cfcd11a74b92}, !- Handle
  HTGSETP_SCH,                            !- Name
  {29917751-467d-4af5-82b7-dbbaa979dc56}, !- Schedule Type Limits Name
  Through: 12/31,                         !- Field 1
  For: Weekdays,                          !- Field 2
  Until: 06:00,                           !- Field 3
  15.6,                                   !- Field 4
  Until: 21:00,                           !- Field 5
  21.0,                                   !- Field 6
  Until: 24:00,                           !- Field 7
  15.6,                                   !- Field 8
  For SummerDesignDay,                    !- Field 9
  Until: 24:00,                           !- Field 10
  15.6,                                   !- Field 11
  For WinterDesignDay,                    !- Field 12
  Until: 24:00,                           !- Field 13
  21.0,                                   !- Field 14
  For: Saturday,                          !- Field 15
  Until: 06:00,                           !- Field 16
  15.6,                                   !- Field 17
  Until: 22:00,                           !- Field 18
  21.0,                                   !- Field 19
  Until: 24:00,                           !- Field 20
  15.6,                                   !- Field 21
  For: AllOtherDays,                      !- Field 22
  Until:  8:00,                           !- Field 23
  15.6,                                   !- Field 24
  Until: 19:00,                           !- Field 25
  21.,                                    !- Field 26
  Until: 24:00,                           !- Field 27
  15.6;                                   !- Field 28

OS:ScheduleTypeLimits,
  {29917751-467d-4af5-82b7-dbbaa979dc56}, !- Handle
  Temperature,                            !- Name
  -60,                                    !- Lower Limit Value {BasedOnField A4}
  200,                                    !- Upper Limit Value {BasedOnField A4}
  CONTINUOUS,                             !- Numeric Type
  Temperature;                            !- Unit Type

OS:Schedule:Compact,
  {fbab105e-49f7-4e59-8269-d5952b62b3b6}, !- Handle
  CLGSETP_SCH,                            !- Name
  {29917751-467d-4af5-82b7-dbbaa979dc56}, !- Schedule Type Limits Name
  Through: 12/31,                         !- Field 1
  For: Weekdays SummerDesignDay,          !- Field 2
  Until: 06:00,                           !- Field 3
  30.0,                                   !- Field 4
  Until: 21:00,                           !- Field 5
  24.0,                                   !- Field 6
  Until: 24:00,                           !- Field 7
  30.0,                                   !- Field 8
  For: Saturday,                          !- Field 9
  Until: 06:00,                           !- Field 10
  30.0,                                   !- Field 11
  Until: 22:00,                           !- Field 12
  24.0,                                   !- Field 13
  Until: 24:00,                           !- Field 14
  30.0,                                   !- Field 15
  For WinterDesignDay,                    !- Field 16
  Until: 24:00,                           !- Field 17
  30.0,                                   !- Field 18
  For: Sunday Holidays AllOtherDays,      !- Field 19
  Until: 8:00,                            !- Field 20
  30.0,                                   !- Field 21
  Until: 19:00,                           !- Field 22
  24.0,                                   !- Field 23
  Until: 24:00,                           !- Field 24
  30.0;                                   !- Field 25

OS:ScheduleTypeLimits,
  {9c6e62b3-3199-4c62-9e11-a312edf09fde}, !- Handle
  Control Type,                           !- Name
  0,                                      !- Lower Limit Value {BasedOnField A4}
  4,                                      !- Upper Limit Value {BasedOnField A4}
  DISCRETE,                               !- Numeric Type
  ControlMode;                            !- Unit Type

OS:Meter,
  {e6e117e6-7f37-4aa5-9590-cdacbcccac87}, !- Handle
  WaterSystems:Gas,                       !- Name
  hourly,                                 !- Reporting Frequency
  False,                                  !- Meter File Only
  False;                                  !- Cumulative

OS:SubSurface,
  {287fc244-a797-4a98-a5b6-2061165e29b8}, !- Handle
  LGstore1_Wall_1_Door_1,                 !- Name
  GlassDoor,                              !- Sub Surface Type
  {88158d00-3cc1-47a1-8c0f-b5ba986fae65}, !- Construction Name
  {eb3635e4-c0c8-47fc-98fa-b36f150c12c2}, !- Surface Name
  ,                                       !- Outside Boundary Condition Object
  ,                                       !- View Factor to Ground
  ,                                       !- Shading Control Name
  ,                                       !- Frame and Divider Name
  1,                                      !- Multiplier
  ,                                       !- Number of Vertices
  2.9, 0, 2.13,                           !- X,Y,Z Vertex 1 {m}
  2.9, 0, 0,                              !- X,Y,Z Vertex 2 {m}
  4.73, 0, 0,                             !- X,Y,Z Vertex 3 {m}
  4.73, 0, 2.13;                          !- X,Y,Z Vertex 4 {m}

OS:Construction,
  {88158d00-3cc1-47a1-8c0f-b5ba986fae65}, !- Handle
  Window Non-res Fixed,                   !- Name
  ,                                       !- Surface Rendering Name
  {318b552f-4960-4240-ae50-66d24bcac7cd}; !- Layer 1

OS:WindowMaterial:SimpleGlazingSystem,
  {318b552f-4960-4240-ae50-66d24bcac7cd}, !- Handle
  NonRes Fixed Assembly Window,           !- Name
  3.23646,                                !- U-Factor {W/m2-K}
  0.39;                                   !- Solar Heat Gain Coefficient

OS:Surface,
  {eb3635e4-c0c8-47fc-98fa-b36f150c12c2}, !- Handle
  LGstore1_Wall_1,                        !- Name
  Wall,                                   !- Surface Type
  {0dd0c47b-0096-4214-b926-f5407df9433e}, !- Construction Name
  {32abed5b-68fd-401c-9c07-525059abb1a9}, !- Space Name
  Outdoors,                               !- Outside Boundary Condition
  ,                                       !- Outside Boundary Condition Object
  SunExposed,                             !- Sun Exposure
  WindExposed,                            !- Wind Exposure
  ,                                       !- View Factor to Ground
  ,                                       !- Number of Vertices
  0, 0, 5.18,                             !- X,Y,Z Vertex 1 {m}
  0, 0, 0,                                !- X,Y,Z Vertex 2 {m}
  15.24, 0, 0,                            !- X,Y,Z Vertex 3 {m}
  15.24, 0, 5.18;                         !- X,Y,Z Vertex 4 {m}

OS:Construction,
  {0dd0c47b-0096-4214-b926-f5407df9433e}, !- Handle
  Steel Frame Non-res Ext Wall,           !- Name
  ,                                       !- Surface Rendering Name
  {531c9d7f-8945-471e-8579-aac70c46f2b8}, !- Layer 1
  {ccbfb3e4-bad0-4d76-a799-f153ea02d5ce}, !- Layer 2
  {bcad2b2e-16ff-46ef-b1fa-fbb4ea697531}; !- Layer 3

OS:Material,
  {531c9d7f-8945-471e-8579-aac70c46f2b8}, !- Handle
  Wood Siding,                            !- Name
  MediumSmooth,                           !- Roughness
  0.01,                                   !- Thickness {m}
  0.11,                                   !- Conductivity {W/m-K}
  544.62,                                 !- Density {kg/m3}
  1210,                                   !- Specific Heat {J/kg-K}
  0.9,                                    !- Thermal Absorptance
  0.78,                                   !- Solar Absorptance
  0.78;                                   !- Visible Absorptance

OS:Material,
  {ccbfb3e4-bad0-4d76-a799-f153ea02d5ce}, !- Handle
  Steel Frame NonRes Wall Insulation,     !- Name
  MediumRough,                            !- Roughness
  0.0870564552646045,                     !- Thickness {m}
  0.049,                                  !- Conductivity {W/m-K}
  265,                                    !- Density {kg/m3}
  836.8,                                  !- Specific Heat {J/kg-K}
  0.9,                                    !- Thermal Absorptance
  0.7,                                    !- Solar Absorptance
  0.7;                                    !- Visible Absorptance

OS:Material,
  {bcad2b2e-16ff-46ef-b1fa-fbb4ea697531}, !- Handle
  1/2IN Gypsum,                           !- Name
  Smooth,                                 !- Roughness
  0.0127,                                 !- Thickness {m}
  0.16,                                   !- Conductivity {W/m-K}
  784.9,                                  !- Density {kg/m3}
  830,                                    !- Specific Heat {J/kg-K}
  0.9,                                    !- Thermal Absorptance
  0.92,                                   !- Solar Absorptance
  0.92;                                   !- Visible Absorptance

OS:Space,
  {32abed5b-68fd-401c-9c07-525059abb1a9}, !- Handle
  LGstore1,                               !- Name
  {b8409f33-e32c-4b89-92e0-81ce5fa0aba3}, !- Space Type Name
  ,                                       !- Default Construction Set Name
  ,                                       !- Default Schedule Set Name
  0,                                      !- Direction of Relative North {deg}
  0,                                      !- X Origin {m}
  0,                                      !- Y Origin {m}
  0,                                      !- Z Origin {m}
  {323ebc1e-7638-449d-8b47-00843660781f}, !- Building Story Name
  {d66343bf-2649-470a-99e1-0fb8141bed83}, !- Thermal Zone Name
  Yes,                                    !- Part of Total Floor Area
  {13c4b4f3-7a0b-4bd7-b1e7-e24b62a83305}; !- Design Specification Outdoor Air Object Name

OS:ThermostatSetpoint:DualSetpoint,
  {712b6060-e583-41b1-9bc9-1a056ce593b4}, !- Handle
  {03b55ba8-61e7-4350-84ec-1a9fd1f208f5}, !- Name
  {346fa3f7-7534-466a-81f6-cfcd11a74b92}, !- Heating Setpoint Temperature Schedule Name
  {fbab105e-49f7-4e59-8269-d5952b62b3b6}; !- Cooling Setpoint Temperature Schedule Name

OS:SubSurface,
  {1370e7c3-b4e8-4f99-80cc-9ad86780dc9b}, !- Handle
  LGstore2_Wall_1_Door_2,                 !- Name
  GlassDoor,                              !- Sub Surface Type
  {88158d00-3cc1-47a1-8c0f-b5ba986fae65}, !- Construction Name
  {da19a9ba-7b39-4c93-85e8-26185d90f50d}, !- Surface Name
  ,                                       !- Outside Boundary Condition Object
  ,                                       !- View Factor to Ground
  ,                                       !- Shading Control Name
  ,                                       !- Frame and Divider Name
  1,                                      !- Multiplier
  ,                                       !- Number of Vertices
  56.24, 0, 2.13,                         !- X,Y,Z Vertex 1 {m}
  56.24, 0, 0,                            !- X,Y,Z Vertex 2 {m}
  58.06, 0, 0,                            !- X,Y,Z Vertex 3 {m}
  58.06, 0, 2.13;                         !- X,Y,Z Vertex 4 {m}

OS:Surface,
  {da19a9ba-7b39-4c93-85e8-26185d90f50d}, !- Handle
  LGstore2_Wall_1,                        !- Name
  Wall,                                   !- Surface Type
  {0dd0c47b-0096-4214-b926-f5407df9433e}, !- Construction Name
  {a84398d2-7af3-487b-b988-c2d4e466a30e}, !- Space Name
  Outdoors,                               !- Outside Boundary Condition
  ,                                       !- Outside Boundary Condition Object
  SunExposed,                             !- Sun Exposure
  WindExposed,                            !- Wind Exposure
  ,                                       !- View Factor to Ground
  ,                                       !- Number of Vertices
  45.72, 0, 5.18,                         !- X,Y,Z Vertex 1 {m}
  45.72, 0, 0,                            !- X,Y,Z Vertex 2 {m}
  60.96, 0, 0,                            !- X,Y,Z Vertex 3 {m}
  60.96, 0, 5.18;                         !- X,Y,Z Vertex 4 {m}

OS:Space,
  {a84398d2-7af3-487b-b988-c2d4e466a30e}, !- Handle
  LGstore2,                               !- Name
  {b8409f33-e32c-4b89-92e0-81ce5fa0aba3}, !- Space Type Name
  ,                                       !- Default Construction Set Name
  ,                                       !- Default Schedule Set Name
  0,                                      !- Direction of Relative North {deg}
  0,                                      !- X Origin {m}
  0,                                      !- Y Origin {m}
  0,                                      !- Z Origin {m}
  {323ebc1e-7638-449d-8b47-00843660781f}, !- Building Story Name
  {8412962a-beda-4c76-9587-a63a57dda760}, !- Thermal Zone Name
  Yes,                                    !- Part of Total Floor Area
  {722eeca0-dbba-4f65-be1a-d493d22963cd}; !- Design Specification Outdoor Air Object Name

OS:ThermostatSetpoint:DualSetpoint,
  {a9e67aa0-31e0-4a89-8ca2-0186baa6a01c}, !- Handle
  {036b3097-a28f-4c46-a076-9b0545bd12d4}, !- Name
  {346fa3f7-7534-466a-81f6-cfcd11a74b92}, !- Heating Setpoint Temperature Schedule Name
  {fbab105e-49f7-4e59-8269-d5952b62b3b6}; !- Cooling Setpoint Temperature Schedule Name

OS:Meter,
  {764577fc-13fa-4770-90d6-576c02d8f8e4}, !- Handle
  Gas:Facility,                           !- Name
  hourly,                                 !- Reporting Frequency
  False,                                  !- Meter File Only
  False;                                  !- Cumulative

OS:Surface,
  {53e7aca4-ce5b-432d-bef6-34f48962d85d}, !- Handle
  SMstore2_Wall_4,                        !- Name
  Wall,                                   !- Surface Type
  {77fd5cc3-f2d6-4bf2-aaeb-7147750cb0a1}, !- Construction Name
  {6814598d-53a1-4c6a-b7b3-67e05c114f0f}, !- Space Name
  Surface,                                !- Outside Boundary Condition
  {796f9788-9f1a-4d0f-ae9d-3c4a009db973}, !- Outside Boundary Condition Object
  NoSun,                                  !- Sun Exposure
  NoWind,                                 !- Wind Exposure
  ,                                       !- View Factor to Ground
  ,                                       !- Number of Vertices
  30.48, 0, 5.18,                         !- X,Y,Z Vertex 1 {m}
  30.48, 0, 0,                            !- X,Y,Z Vertex 2 {m}
  30.48, 22.86, 0,                        !- X,Y,Z Vertex 3 {m}
  30.48, 22.86, 5.18;                     !- X,Y,Z Vertex 4 {m}

OS:Construction,
  {77fd5cc3-f2d6-4bf2-aaeb-7147750cb0a1}, !- Handle
  int-walls,                              !- Name
  ,                                       !- Surface Rendering Name
  {bcad2b2e-16ff-46ef-b1fa-fbb4ea697531}, !- Layer 1
  {bcad2b2e-16ff-46ef-b1fa-fbb4ea697531}; !- Layer 2

OS:Space,
  {6814598d-53a1-4c6a-b7b3-67e05c114f0f}, !- Handle
  SMstore2,                               !- Name
  {b8409f33-e32c-4b89-92e0-81ce5fa0aba3}, !- Space Type Name
  ,                                       !- Default Construction Set Name
  ,                                       !- Default Schedule Set Name
  0,                                      !- Direction of Relative North {deg}
  0,                                      !- X Origin {m}
  0,                                      !- Y Origin {m}
  0,                                      !- Z Origin {m}
  {323ebc1e-7638-449d-8b47-00843660781f}, !- Building Story Name
  {8412962a-beda-4c76-9587-a63a57dda760}, !- Thermal Zone Name
  Yes,                                    !- Part of Total Floor Area
  {9581360e-a639-454f-91cd-cef84d729417}; !- Design Specification Outdoor Air Object Name

OS:ThermostatSetpoint:DualSetpoint,
  {5f071c10-b6fa-48e6-b91e-45db65521a79}, !- Handle
  {5367cf38-84b1-4b2a-838e-8d4b6796e291}, !- Name
  {346fa3f7-7534-466a-81f6-cfcd11a74b92}, !- Heating Setpoint Temperature Schedule Name
  {fbab105e-49f7-4e59-8269-d5952b62b3b6}; !- Cooling Setpoint Temperature Schedule Name

OS:SubSurface,
  {e8fb1149-4468-4bf0-8779-3805815b5083}, !- Handle
  LGstore1_Wall_1_Window_2,               !- Name
  FixedWindow,                            !- Sub Surface Type
  {88158d00-3cc1-47a1-8c0f-b5ba986fae65}, !- Construction Name
  {eb3635e4-c0c8-47fc-98fa-b36f150c12c2}, !- Surface Name
  ,                                       !- Outside Boundary Condition Object
  ,                                       !- View Factor to Ground
  ,                                       !- Shading Control Name
  ,                                       !- Frame and Divider Name
  1,                                      !- Multiplier
  ,                                       !- Number of Vertices
  4.88, 0, 2.43,                          !- X,Y,Z Vertex 1 {m}
  4.88, 0, 0.91,                          !- X,Y,Z Vertex 2 {m}
  7.01, 0, 0.91,                          !- X,Y,Z Vertex 3 {m}
  7.01, 0, 2.43;                          !- X,Y,Z Vertex 4 {m}

OS:SubSurface,
  {73383046-01fc-4de4-b424-4376c6a31eed}, !- Handle
  SMstore6_Wall_3_Door,                   !- Name
  Door,                                   !- Sub Surface Type
  {a0cdf2da-fbc7-483d-aad8-1f7129c4151d}, !- Construction Name
  {872a6192-36b8-41fd-8974-842ae5e8e5a1}, !- Surface Name
  ,                                       !- Outside Boundary Condition Object
  ,                                       !- View Factor to Ground
  ,                                       !- Shading Control Name
  ,                                       !- Frame and Divider Name
  1,                                      !- Multiplier
  ,                                       !- Number of Vertices
  73.3, 22.86, 2.13,                      !- X,Y,Z Vertex 1 {m}
  73.3, 22.86, 0,                         !- X,Y,Z Vertex 2 {m}
  71.48, 22.86, 0,                        !- X,Y,Z Vertex 3 {m}
  71.48, 22.86, 2.13;                     !- X,Y,Z Vertex 4 {m}

OS:Construction,
  {a0cdf2da-fbc7-483d-aad8-1f7129c4151d}, !- Handle
  Swinging Door Non-res,                  !- Name
  ,                                       !- Surface Rendering Name
  {d5fd2f52-341f-4ca7-a096-ad55129bb400}; !- Layer 1

OS:Material:NoMass,
  {d5fd2f52-341f-4ca7-a096-ad55129bb400}, !- Handle
  Opaque Door panel NonRes,               !- Name
  MediumRough,                            !- Roughness
  0.101897046243647,                      !- Thermal Resistance {m2-K/W}
  0.9,                                    !- Thermal Absorptance
  0.7,                                    !- Solar Absorptance
  0.7;                                    !- Visible Absorptance

OS:Surface,
  {872a6192-36b8-41fd-8974-842ae5e8e5a1}, !- Handle
  SMstore6_Wall_3,                        !- Name
  Wall,                                   !- Surface Type
  {0dd0c47b-0096-4214-b926-f5407df9433e}, !- Construction Name
  {03c9fc34-344f-4c42-8a48-b253bc53e1d0}, !- Space Name
  Outdoors,                               !- Outside Boundary Condition
  ,                                       !- Outside Boundary Condition Object
  SunExposed,                             !- Sun Exposure
  WindExposed,                            !- Wind Exposure
  ,                                       !- View Factor to Ground
  ,                                       !- Number of Vertices
  76.2, 22.86, 5.18,                      !- X,Y,Z Vertex 1 {m}
  76.2, 22.86, 0,                         !- X,Y,Z Vertex 2 {m}
  68.58, 22.86, 0,                        !- X,Y,Z Vertex 3 {m}
  68.58, 22.86, 5.18;                     !- X,Y,Z Vertex 4 {m}

OS:Space,
  {03c9fc34-344f-4c42-8a48-b253bc53e1d0}, !- Handle
  SMstore6,                               !- Name
  {b8409f33-e32c-4b89-92e0-81ce5fa0aba3}, !- Space Type Name
  ,                                       !- Default Construction Set Name
  ,                                       !- Default Schedule Set Name
  0,                                      !- Direction of Relative North {deg}
  0,                                      !- X Origin {m}
  0,                                      !- Y Origin {m}
  0,                                      !- Z Origin {m}
  {323ebc1e-7638-449d-8b47-00843660781f}, !- Building Story Name
  {8412962a-beda-4c76-9587-a63a57dda760}, !- Thermal Zone Name
  Yes,                                    !- Part of Total Floor Area
  {92c3c8a1-caf4-42f3-bfed-a02298377ee6}; !- Design Specification Outdoor Air Object Name

OS:ThermostatSetpoint:DualSetpoint,
  {a6125c25-53f0-4432-ad0c-3fdc7a0034f7}, !- Handle
  {74594c9b-61d5-4555-b421-0c8a2cc425b7}, !- Name
  {346fa3f7-7534-466a-81f6-cfcd11a74b92}, !- Heating Setpoint Temperature Schedule Name
  {fbab105e-49f7-4e59-8269-d5952b62b3b6}; !- Cooling Setpoint Temperature Schedule Name

OS:Material,
  {f1ddb432-0714-4d0e-b8bd-03ff918fc87d}, !- Handle
  8IN CONCRETE HW,                        !- Name
  Rough,                                  !- Roughness
  0.2032,                                 !- Thickness {m}
  1.311,                                  !- Conductivity {W/m-K}
  2240,                                   !- Density {kg/m3}
  836.8,                                  !- Specific Heat {J/kg-K}
  0.9,                                    !- Thermal Absorptance
  0.7,                                    !- Solar Absorptance
  0.7;                                    !- Visible Absorptance

OS:SubSurface,
  {db728fb0-af5f-43c1-905a-d4802d7f86a6}, !- Handle
  SMstore3_Wall_1_Window_2,               !- Name
  FixedWindow,                            !- Sub Surface Type
  {88158d00-3cc1-47a1-8c0f-b5ba986fae65}, !- Construction Name
  {b6c1cefd-2ed6-4051-9e6d-784ee83ebfd9}, !- Surface Name
  ,                                       !- Outside Boundary Condition Object
  ,                                       !- View Factor to Ground
  ,                                       !- Shading Control Name
  ,                                       !- Frame and Divider Name
  1,                                      !- Multiplier
  ,                                       !- Number of Vertices
  35.36, 0, 2.43,                         !- X,Y,Z Vertex 1 {m}
  35.36, 0, 0.91,                         !- X,Y,Z Vertex 2 {m}
  37.49, 0, 0.91,                         !- X,Y,Z Vertex 3 {m}
  37.49, 0, 2.43;                         !- X,Y,Z Vertex 4 {m}

OS:Surface,
  {b6c1cefd-2ed6-4051-9e6d-784ee83ebfd9}, !- Handle
  SMstore3_Wall_1,                        !- Name
  Wall,                                   !- Surface Type
  {0dd0c47b-0096-4214-b926-f5407df9433e}, !- Construction Name
  {0034bbf3-0989-46fe-a151-07504f1186c6}, !- Space Name
  Outdoors,                               !- Outside Boundary Condition
  ,                                       !- Outside Boundary Condition Object
  SunExposed,                             !- Sun Exposure
  WindExposed,                            !- Wind Exposure
  ,                                       !- View Factor to Ground
  ,                                       !- Number of Vertices
  30.48, 0, 5.18,                         !- X,Y,Z Vertex 1 {m}
  30.48, 0, 0,                            !- X,Y,Z Vertex 2 {m}
  38.1, 0, 0,                             !- X,Y,Z Vertex 3 {m}
  38.1, 0, 5.18;                          !- X,Y,Z Vertex 4 {m}

OS:Space,
  {0034bbf3-0989-46fe-a151-07504f1186c6}, !- Handle
  SMstore3,                               !- Name
  {b8409f33-e32c-4b89-92e0-81ce5fa0aba3}, !- Space Type Name
  ,                                       !- Default Construction Set Name
  ,                                       !- Default Schedule Set Name
  0,                                      !- Direction of Relative North {deg}
  0,                                      !- X Origin {m}
  0,                                      !- Y Origin {m}
  0,                                      !- Z Origin {m}
  {323ebc1e-7638-449d-8b47-00843660781f}, !- Building Story Name
  {8412962a-beda-4c76-9587-a63a57dda760}, !- Thermal Zone Name
  Yes,                                    !- Part of Total Floor Area
  {150b1673-2219-4c17-92fc-1d3f6db979fc}; !- Design Specification Outdoor Air Object Name

OS:ThermostatSetpoint:DualSetpoint,
  {3e875194-b1a4-4ba4-ac3b-44a75016be8f}, !- Handle
  {4dfec41a-4348-41fe-9049-acbdff5730aa}, !- Name
  {346fa3f7-7534-466a-81f6-cfcd11a74b92}, !- Heating Setpoint Temperature Schedule Name
  {fbab105e-49f7-4e59-8269-d5952b62b3b6}; !- Cooling Setpoint Temperature Schedule Name

OS:Lights:Definition,
  {5e9d1878-ea06-4149-886c-822d872cdf92}, !- Handle
  SMstore7_Lights Definition,             !- Name
  Watts/Area,                             !- Design Level Calculation Method
  ,                                       !- Lighting Level {W}
  13.77,                                  !- Watts per Space Floor Area {W/m2}
  ,                                       !- Watts per Person {W/person}
  0.7,                                    !- Fraction Radiant
  0.2,                                    !- Fraction Visible
  0,                                      !- Return Air Fraction