
OS:Version,
  {dcc1a1d7-1b3d-49f2-9f2c-5fa8d6fd95d7}, !- Handle
  1.8.0;                                  !- Version Identifier

OS:Site,
  {7925c213-1c71-4425-b77e-0b9a4986b657}, !- Handle
  USA IL-CHICAGO-OHARE,                   !- Name
  41.77,                                  !- Latitude {deg}
  -87.75,                                 !- Longitude {deg}
  -6,                                     !- Time Zone {hr}
  190,                                    !- Elevation {m}
  City;                                   !- Terrain

OS:SimulationControl,
  {8f09ae77-f49b-4e88-88e1-effbe1094d36}, !- Handle
  Yes,                                    !- Do Zone Sizing Calculation
  Yes,                                    !- Do System Sizing Calculation
  Yes,                                    !- Do Plant Sizing Calculation
  No,                                     !- Run Simulation for Sizing Periods
  Yes,                                    !- Run Simulation for Weather File Run Periods
  0.04,                                   !- Loads Convergence Tolerance Value
  0.2,                                    !- Temperature Convergence Tolerance Value {deltaC}
  FullInteriorAndExterior,                !- Solar Distribution
  25,                                     !- Maximum Number of Warmup Days
  6;                                      !- Minimum Number of Warmup Days

OS:SubSurface,
  {2ab0d740-82a2-4972-b25c-810d50523d66}, !- Handle
  SMstore6_Wall_1_Window_2,               !- Name
  FixedWindow,                            !- Sub Surface Type
  {5a63fd37-3b2d-4fbb-b229-8a5a0739a684}, !- Construction Name
  {960f6fd3-2cf5-4066-beb7-98fad0d5b6d4}, !- Surface Name
  ,                                       !- Outside Boundary Condition Object
  ,                                       !- View Factor to Ground
  ,                                       !- Shading Control Name
  ,                                       !- Frame and Divider Name
  1,                                      !- Multiplier
  ,                                       !- Number of Vertices
  73.46, 0, 2.43,                         !- X,Y,Z Vertex 1 {m}
  73.46, 0, 0.91,                         !- X,Y,Z Vertex 2 {m}
  75.59, 0, 0.91,                         !- X,Y,Z Vertex 3 {m}
  75.59, 0, 2.43;                         !- X,Y,Z Vertex 4 {m}

OS:Construction,
  {5a63fd37-3b2d-4fbb-b229-8a5a0739a684}, !- Handle
  Window Non-res Fixed,                   !- Name
  ,                                       !- Surface Rendering Name
  {f4dcf715-f049-4ebb-ada8-b7544177cc15}; !- Layer 1

OS:WindowMaterial:SimpleGlazingSystem,
  {f4dcf715-f049-4ebb-ada8-b7544177cc15}, !- Handle
  NonRes Fixed Assembly Window,           !- Name
  3.23646,                                !- U-Factor {W/m2-K}
  0.39;                                   !- Solar Heat Gain Coefficient

OS:Surface,
  {960f6fd3-2cf5-4066-beb7-98fad0d5b6d4}, !- Handle
  SMstore6_Wall_1,                        !- Name
  Wall,                                   !- Surface Type
  {deeef12d-037a-426b-b7a9-c8526f99f485}, !- Construction Name
  {808607d8-ad42-41fe-981c-9bcae8746770}, !- Space Name
  Outdoors,                               !- Outside Boundary Condition
  ,                                       !- Outside Boundary Condition Object
  SunExposed,                             !- Sun Exposure
  WindExposed,                            !- Wind Exposure
  ,                                       !- View Factor to Ground
  ,                                       !- Number of Vertices
  68.58, 0, 5.18,                         !- X,Y,Z Vertex 1 {m}
  68.58, 0, 0,                            !- X,Y,Z Vertex 2 {m}
  76.2, 0, 0,                             !- X,Y,Z Vertex 3 {m}
  76.2, 0, 5.18;                          !- X,Y,Z Vertex 4 {m}

OS:Construction,
  {deeef12d-037a-426b-b7a9-c8526f99f485}, !- Handle
  Steel Frame Non-res Ext Wall,           !- Name
  ,                                       !- Surface Rendering Name
  {224a96d5-678b-47e2-aef5-52e81c020e45}, !- Layer 1
  {d64a23ee-9f99-41f1-8c49-c05cee4fcaed}, !- Layer 2
  {41380efe-34fb-4e73-bb1c-2fc5670e815f}; !- Layer 3

OS:Material,
  {224a96d5-678b-47e2-aef5-52e81c020e45}, !- Handle
  Wood Siding,                            !- Name
  MediumSmooth,                           !- Roughness
  0.01,                                   !- Thickness {m}
  0.11,                                   !- Conductivity {W/m-K}
  544.62,                                 !- Density {kg/m3}
  1210,                                   !- Specific Heat {J/kg-K}
  0.9,                                    !- Thermal Absorptance
  0.78,                                   !- Solar Absorptance
  0.78;                                   !- Visible Absorptance

OS:Material,
  {d64a23ee-9f99-41f1-8c49-c05cee4fcaed}, !- Handle
  Steel Frame NonRes Wall Insulation,     !- Name
  MediumRough,                            !- Roughness
  0.0870564552646045,                     !- Thickness {m}
  0.049,                                  !- Conductivity {W/m-K}
  265,                                    !- Density {kg/m3}
  836.8,                                  !- Specific Heat {J/kg-K}
  0.9,                                    !- Thermal Absorptance
  0.7,                                    !- Solar Absorptance
  0.7;                                    !- Visible Absorptance

OS:Material,
  {41380efe-34fb-4e73-bb1c-2fc5670e815f}, !- Handle
  1/2IN Gypsum,                           !- Name
  Smooth,                                 !- Roughness
  0.0127,                                 !- Thickness {m}
  0.16,                                   !- Conductivity {W/m-K}
  784.9,                                  !- Density {kg/m3}
  830,                                    !- Specific Heat {J/kg-K}
  0.9,                                    !- Thermal Absorptance
  0.92,                                   !- Solar Absorptance
  0.92;                                   !- Visible Absorptance

OS:Space,
  {808607d8-ad42-41fe-981c-9bcae8746770}, !- Handle
  SMstore6,                               !- Name
  {47371d2a-5980-4cfb-8002-5abd6ac41b34}, !- Space Type Name
  ,                                       !- Default Construction Set Name
  ,                                       !- Default Schedule Set Name
  0,                                      !- Direction of Relative North {deg}
  0,                                      !- X Origin {m}
  0,                                      !- Y Origin {m}
  0,                                      !- Z Origin {m}
  {fcb1a845-b193-40fc-9c88-58047130f2ce}, !- Building Story Name
  {655a33cc-b631-4fe4-9d55-b013069c553e}, !- Thermal Zone Name
  Yes,                                    !- Part of Total Floor Area
  {e59282ff-bdd7-4ee6-9798-75b22e02f61a}; !- Design Specification Outdoor Air Object Name

OS:ThermostatSetpoint:DualSetpoint,
  {3b2eac11-2a0c-4a3d-a1a7-423ce14828aa}, !- Handle
  {32b0b6a9-1631-4de1-aa77-a4336ddff635}, !- Name
  {5d2eb288-a41a-491e-ab91-2da398f4c56b}, !- Heating Setpoint Temperature Schedule Name
  {db6cf562-8109-4b57-83be-034d24d93903}; !- Cooling Setpoint Temperature Schedule Name

OS:Schedule:Compact,
  {5d2eb288-a41a-491e-ab91-2da398f4c56b}, !- Handle
  HTGSETP_SCH,                            !- Name
  {bb5a43d4-6d7c-4b5f-ab9e-6d78f52d4d36}, !- Schedule Type Limits Name
  Through: 12/31,                         !- Field 1
  For: Weekdays,                          !- Field 2
  Until: 06:00,                           !- Field 3
  15.6,                                   !- Field 4
  Until: 21:00,                           !- Field 5
  21.0,                                   !- Field 6
  Until: 24:00,                           !- Field 7
  15.6,                                   !- Field 8
  For SummerDesignDay,                    !- Field 9
  Until: 24:00,                           !- Field 10
  15.6,                                   !- Field 11
  For WinterDesignDay,                    !- Field 12
  Until: 24:00,                           !- Field 13
  21.0,                                   !- Field 14
  For: Saturday,                          !- Field 15
  Until: 06:00,                           !- Field 16
  15.6,                                   !- Field 17
  Until: 22:00,                           !- Field 18
  21.0,                                   !- Field 19
  Until: 24:00,                           !- Field 20
  15.6,                                   !- Field 21
  For: AllOtherDays,                      !- Field 22
  Until:  8:00,                           !- Field 23
  15.6,                                   !- Field 24
  Until: 19:00,                           !- Field 25
  21.,                                    !- Field 26
  Until: 24:00,                           !- Field 27
  15.6;                                   !- Field 28

OS:ScheduleTypeLimits,
  {bb5a43d4-6d7c-4b5f-ab9e-6d78f52d4d36}, !- Handle
  Temperature,                            !- Name
  -60,                                    !- Lower Limit Value {BasedOnField A4}
  200,                                    !- Upper Limit Value {BasedOnField A4}
  CONTINUOUS,                             !- Numeric Type
  Temperature;                            !- Unit Type

OS:Schedule:Compact,
  {db6cf562-8109-4b57-83be-034d24d93903}, !- Handle
  CLGSETP_SCH,                            !- Name
  {bb5a43d4-6d7c-4b5f-ab9e-6d78f52d4d36}, !- Schedule Type Limits Name
  Through: 12/31,                         !- Field 1
  For: Weekdays SummerDesignDay,          !- Field 2
  Until: 06:00,                           !- Field 3
  30.0,                                   !- Field 4
  Until: 21:00,                           !- Field 5
  24.0,                                   !- Field 6
  Until: 24:00,                           !- Field 7
  30.0,                                   !- Field 8
  For: Saturday,                          !- Field 9
  Until: 06:00,                           !- Field 10
  30.0,                                   !- Field 11
  Until: 22:00,                           !- Field 12
  24.0,                                   !- Field 13
  Until: 24:00,                           !- Field 14
  30.0,                                   !- Field 15
  For WinterDesignDay,                    !- Field 16
  Until: 24:00,                           !- Field 17
  30.0,                                   !- Field 18
  For: Sunday Holidays AllOtherDays,      !- Field 19
  Until: 8:00,                            !- Field 20
  30.0,                                   !- Field 21
  Until: 19:00,                           !- Field 22
  24.0,                                   !- Field 23
  Until: 24:00,                           !- Field 24
  30.0;                                   !- Field 25

OS:People:Definition,
  {b6b354a0-28f4-4e46-81f5-976adc12569e}, !- Handle
  SMstore6 People Definition,             !- Name
  Area/Person,                            !- Number of People Calculation Method
  ,                                       !- Number of People {people}
  ,                                       !- People per Space Floor Area {person/m2}
  6.19,                                   !- Space Floor Area per Person {m2/person}
  0.3,                                    !- Fraction Radiant
  ,                                       !- Sensible Heat Fraction
  ,                                       !- Carbon Dioxide Generation Rate {m3/s-W}
  No,                                     !- Enable ASHRAE 55 Comfort Warnings
  ZoneAveraged;                           !- Mean Radiant Temperature Calculation Type

OS:People,
  {fe25fc5c-5047-42d3-baa7-6c984fa60717}, !- Handle
  SMstore6 People,                        !- Name
  {b6b354a0-28f4-4e46-81f5-976adc12569e}, !- People Definition Name
  {808607d8-ad42-41fe-981c-9bcae8746770}, !- Space or SpaceType Name
  {c1dc1202-7ec9-470e-8979-3d4f29b4b192}, !- Number of People Schedule Name
  {534d6bf3-2f50-4411-945b-1c488f9b588d}, !- Activity Level Schedule Name
  ,                                       !- Surface Name/Angle Factor List Name
  {6698a4d8-b0c8-4798-a6bd-3e1688912e89}; !- Work Efficiency Schedule Name

OS:Schedule:Compact,
  {c1dc1202-7ec9-470e-8979-3d4f29b4b192}, !- Handle
  BLDG_OCC_SCH,                           !- Name
  {037e7d53-36ca-469a-b378-4de07cf40d75}, !- Schedule Type Limits Name
  Through: 12/31,                         !- Field 1
  For: Weekdays,                          !- Field 2
  Until: 07:00,                           !- Field 3
  0.0,                                    !- Field 4
  Until: 08:00,                           !- Field 5
  0.1,                                    !- Field 6
  Until: 09:00,                           !- Field 7
  0.2,                                    !- Field 8
  Until: 11:00,                           !- Field 9
  0.5,                                    !- Field 10
  Until: 15:00,                           !- Field 11
  0.7,                                    !- Field 12
  Until: 16:00,                           !- Field 13
  0.8,                                    !- Field 14
  Until: 17:00,                           !- Field 15
  0.7,                                    !- Field 16
  Until: 19:00,                           !- Field 17
  0.5,                                    !- Field 18
  Until: 21:00,                           !- Field 19
  0.3,                                    !- Field 20
  Until: 24:00,                           !- Field 21
  0.0,                                    !- Field 22
  For: SummerDesignDay WinterDesignDay,   !- Field 23
  Until: 24:00,                           !- Field 24
  1.0,                                    !- Field 25
  For: Saturday,                          !- Field 26
  Until: 07:00,                           !- Field 27
  0.0,                                    !- Field 28
  Until: 08:00,                           !- Field 29
  0.1,                                    !- Field 30
  Until: 09:00,                           !- Field 31
  0.2,                                    !- Field 32
  Until: 10:00,                           !- Field 33
  0.5,                                    !- Field 34
  Until: 11:00,                           !- Field 35
  0.6,                                    !- Field 36
  Until: 17:00,                           !- Field 37
  0.8,                                    !- Field 38
  Until: 18:00,                           !- Field 39
  0.6,                                    !- Field 40
  Until: 21:00,                           !- Field 41
  0.2,                                    !- Field 42
  Until: 22:00,                           !- Field 43
  0.1,                                    !- Field 44
  Until: 24:00,                           !- Field 45
  0.0,                                    !- Field 46
  For: AllOtherDays,                      !- Field 47
  Until: 09:00,                           !- Field 48
  0.0,                                    !- Field 49
  Until: 10:00,                           !- Field 50
  0.1,                                    !- Field 51
  Until: 12:00,                           !- Field 52
  0.2,                                    !- Field 53
  Until: 17:00,                           !- Field 54
  0.4,                                    !- Field 55
  Until: 18:00,                           !- Field 56
  0.2,                                    !- Field 57
  Until: 19:00,                           !- Field 58
  0.1,                                    !- Field 59
  Until: 24:00,                           !- Field 60
  0.0;                                    !- Field 61

OS:ScheduleTypeLimits,
  {037e7d53-36ca-469a-b378-4de07cf40d75}, !- Handle
  Fraction,                               !- Name
  0,                                      !- Lower Limit Value {BasedOnField A4}
  1,                                      !- Upper Limit Value {BasedOnField A4}
  CONTINUOUS;                             !- Numeric Type

OS:Schedule:Compact,
  {534d6bf3-2f50-4411-945b-1c488f9b588d}, !- Handle
  ACTIVITY_SCH,                           !- Name
  {ee924b7f-cfd0-4b7f-b138-4fa270f4d613}, !- Schedule Type Limits Name
  Through: 12/31,                         !- Field 1
  For: AllDays,                           !- Field 2
  Until: 24:00,                           !- Field 3
  120.;                                   !- Field 4

OS:ScheduleTypeLimits,
  {96df2a1c-e179-4e66-bee3-01954287d277}, !- Handle
  {21b38c04-e34b-4b48-806a-16995569138d}; !- Name

OS:ScheduleTypeLimits,
  {ee924b7f-cfd0-4b7f-b138-4fa270f4d613}, !- Handle
  ActivityLevel,                          !- Name
  0,                                      !- Lower Limit Value {BasedOnField A4}
  ,                                       !- Upper Limit Value {BasedOnField A4}
  Continuous,                             !- Numeric Type
  ActivityLevel;                          !- Unit Type

OS:Schedule:Compact,
  {6698a4d8-b0c8-4798-a6bd-3e1688912e89}, !- Handle
  WORK_EFF_SCH,                           !- Name
  {037e7d53-36ca-469a-b378-4de07cf40d75}, !- Schedule Type Limits Name
  Through: 12/31,                         !- Field 1
  For: AllDays,                           !- Field 2
  Until: 24:00,                           !- Field 3
  0.0;                                    !- Field 4

OS:Surface,
  {5a7cf5d4-9c9e-433e-a0f5-ecf19a62fbe8}, !- Handle
  SMstore3_Wall_3,                        !- Name
  Wall,                                   !- Surface Type
  {deeef12d-037a-426b-b7a9-c8526f99f485}, !- Construction Name
  {1b549bed-75a5-4a5a-a8a1-98a5206ea29f}, !- Space Name
  Outdoors,                               !- Outside Boundary Condition
  ,                                       !- Outside Boundary Condition Object
  SunExposed,                             !- Sun Exposure
  WindExposed,                            !- Wind Exposure
  ,                                       !- View Factor to Ground
  ,                                       !- Number of Vertices
  38.1, 22.86, 5.18,                      !- X,Y,Z Vertex 1 {m}
  38.1, 22.86, 0,                         !- X,Y,Z Vertex 2 {m}
  30.48, 22.86, 0,                        !- X,Y,Z Vertex 3 {m}
  30.48, 22.86, 5.18;                     !- X,Y,Z Vertex 4 {m}

OS:Space,
  {1b549bed-75a5-4a5a-a8a1-98a5206ea29f}, !- Handle
  SMstore3,                               !- Name
  {47371d2a-5980-4cfb-8002-5abd6ac41b34}, !- Space Type Name
  ,                                       !- Default Construction Set Name
  ,                                       !- Default Schedule Set Name
  0,                                      !- Direction of Relative North {deg}
  0,                                      !- X Origin {m}
  0,                                      !- Y Origin {m}
  0,                                      !- Z Origin {m}
  {fcb1a845-b193-40fc-9c88-58047130f2ce}, !- Building Story Name
  {655a33cc-b631-4fe4-9d55-b013069c553e}, !- Thermal Zone Name
  Yes,                                    !- Part of Total Floor Area
  {2a027b76-0452-47be-afe3-c6414aac8c4e}; !- Design Specification Outdoor Air Object Name

OS:ThermostatSetpoint:DualSetpoint,
  {bed52120-402a-44a5-a974-9f63499a93d2}, !- Handle
  {5593c172-a404-4d55-a049-c741944f0b19}, !- Name
  {5d2eb288-a41a-491e-ab91-2da398f4c56b}, !- Heating Setpoint Temperature Schedule Name
  {db6cf562-8109-4b57-83be-034d24d93903}; !- Cooling Setpoint Temperature Schedule Name

OS:Material,
  {d1cf8a9f-106b-4e6a-b762-d5c45f678166}, !- Handle
  Std AC02,                               !- Name
  MediumSmooth,                           !- Roughness
  0.0127,                                 !- Thickness {m}
  0.057,                                  !- Conductivity {W/m-K}
  288,                                    !- Density {kg/m3}
  1339,                                   !- Specific Heat {J/kg-K}
  0.9,                                    !- Thermal Absorptance
  0.7,                                    !- Solar Absorptance
  0.2;                                    !- Visible Absorptance

OS:Curve:Biquadratic,
  {d585f85b-1512-4a30-985d-1186f1364641}, !- Handle
  Measured_LowSpeedCoolCapLSFT,           !- Name
  0.4136,                                 !- Coefficient1 Constant
  0.03105,                                !- Coefficient2 x
  0,                                      !- Coefficient3 x**2
  0.006952,                               !- Coefficient4 y
  -0.0002128,                             !- Coefficient5 y**2
  0,                                      !- Coefficient6 x*y
  11.1,                                   !- Minimum Value of x {BasedOnField A2}
  29.4,                                   !- Maximum Value of x {BasedOnField A2}
  10,                                     !- Minimum Value of y {BasedOnField A3}
  50.3;                                   !- Maximum Value of y {BasedOnField A3}

OS:Surface,
  {ee9ed160-a686-4633-be95-c943e672b38c}, !- Handle
  SMstore6_Wall_3,                        !- Name
  Wall,                                   !- Surface Type
  {deeef12d-037a-426b-b7a9-c8526f99f485}, !- Construction Name
  {808607d8-ad42-41fe-981c-9bcae8746770}, !- Space Name
  Outdoors,                               !- Outside Boundary Condition
  ,                                       !- Outside Boundary Condition Object
  SunExposed,                             !- Sun Exposure
  WindExposed,                            !- Wind Exposure
  ,                                       !- View Factor to Ground
  ,                                       !- Number of Vertices
  76.2, 22.86, 5.18,                      !- X,Y,Z Vertex 1 {m}
  76.2, 22.86, 0,                         !- X,Y,Z Vertex 2 {m}
  68.58, 22.86, 0,                        !- X,Y,Z Vertex 3 {m}
  68.58, 22.86, 5.18;                     !- X,Y,Z Vertex 4 {m}

OS:Surface,
  {af36e545-abc5-4477-8ad9-85a54af82ea4}, !- Handle
  SMstore8_Wall_2,                        !- Name
  Wall,                                   !- Surface Type
  {dc1f4c34-4904-4b99-9232-7b0ba9a7ea93}, !- Construction Name
  {fec4708d-5c48-4317-85c4-2365c90a22ca}, !- Space Name
  Surface,                                !- Outside Boundary Condition
  {6ebd2a43-e257-4eb2-8459-35c5dccd7603}, !- Outside Boundary Condition Object
  NoSun,                                  !- Sun Exposure
  NoWind,                                 !- Wind Exposure
  ,                                       !- View Factor to Ground
  ,                                       !- Number of Vertices
  83.82, 22.86, 5.18,                     !- X,Y,Z Vertex 1 {m}
  83.82, 22.86, 0,                        !- X,Y,Z Vertex 2 {m}
  83.82, 0, 0,                            !- X,Y,Z Vertex 3 {m}
  83.82, 0, 5.18;                         !- X,Y,Z Vertex 4 {m}

OS:Construction,
  {dc1f4c34-4904-4b99-9232-7b0ba9a7ea93}, !- Handle
  int-walls,                              !- Name
  ,                                       !- Surface Rendering Name
  {41380efe-34fb-4e73-bb1c-2fc5670e815f}, !- Layer 1
  {41380efe-34fb-4e73-bb1c-2fc5670e815f}; !- Layer 2

OS:Space,
  {fec4708d-5c48-4317-85c4-2365c90a22ca}, !- Handle
  SMstore8,                               !- Name
  {47371d2a-5980-4cfb-8002-5abd6ac41b34}, !- Space Type Name
  ,                                       !- Default Construction Set Name
  ,                                       !- Default Schedule Set Name
  0,                                      !- Direction of Relative North {deg}
  0,                                      !- X Origin {m}
  0,                                      !- Y Origin {m}
  0,                                      !- Z Origin {m}
  {fcb1a845-b193-40fc-9c88-58047130f2ce}, !- Building Story Name
  {4f0890e2-d0db-47f4-b9f4-9c977fcea817}, !- Thermal Zone Name
  Yes,                                    !- Part of Total Floor Area
  {2398dc32-b8d9-4af5-a0cb-6ea42dce1e3a}; !- Design Specification Outdoor Air Object Name

OS:ThermostatSetpoint:DualSetpoint,
  {e4245f2b-40c9-43ec-a561-5278c5c2fd9d}, !- Handle
  {7fb4fd41-d7a9-4cb9-9b0a-54ca568de71a}, !- Name
  {5d2eb288-a41a-491e-ab91-2da398f4c56b}, !- Heating Setpoint Temperature Schedule Name
  {db6cf562-8109-4b57-83be-034d24d93903}; !- Cooling Setpoint Temperature Schedule Name

OS:Material,
  {e1f38a00-c94e-41f5-8249-5138a12f9589}, !- Handle
  8IN CONCRETE HW,                        !- Name
  Rough,                                  !- Roughness
  0.2032,                                 !- Thickness {m}
  1.311,                                  !- Conductivity {W/m-K}
  2240,                                   !- Density {kg/m3}
  836.8,                                  !- Specific Heat {J/kg-K}
  0.9,                                    !- Thermal Absorptance
  0.7,                                    !- Solar Absorptance
  0.7;                                    !- Visible Absorptance

OS:Surface,
  {15a3490b-a7e6-4139-bfb5-fa47197102d6}, !- Handle
  SMstore5_Wall_1,                        !- Name
  Wall,                                   !- Surface Type
  {deeef12d-037a-426b-b7a9-c8526f99f485}, !- Construction Name
  {2331c039-4169-47ad-926b-4a17a6a6925c}, !- Space Name
  Outdoors,                               !- Outside Boundary Condition
  ,                                       !- Outside Boundary Condition Object
  SunExposed,                             !- Sun Exposure
  WindExposed,                            !- Wind Exposure
  ,                                       !- View Factor to Ground
  ,                                       !- Number of Vertices
  60.96, 0, 5.18,                         !- X,Y,Z Vertex 1 {m}
  60.96, 0, 0,                            !- X,Y,Z Vertex 2 {m}
  68.58, 0, 0,                            !- X,Y,Z Vertex 3 {m}
  68.58, 0, 5.18;                         !- X,Y,Z Vertex 4 {m}

OS:Space,
  {2331c039-4169-47ad-926b-4a17a6a6925c}, !- Handle
  SMstore5,                               !- Name
  {47371d2a-5980-4cfb-8002-5abd6ac41b34}, !- Space Type Name
  ,                                       !- Default Construction Set Name
  ,                                       !- Default Schedule Set Name
  0,                                      !- Direction of Relative North {deg}
  0,                                      !- X Origin {m}
  0,                                      !- Y Origin {m}
  0,                                      !- Z Origin {m}
  {fcb1a845-b193-40fc-9c88-58047130f2ce}, !- Building Story Name
  {655a33cc-b631-4fe4-9d55-b013069c553e}, !- Thermal Zone Name
  Yes,                                    !- Part of Total Floor Area
  {2e207086-9862-4378-9e12-335453e3e4b9}; !- Design Specification Outdoor Air Object Name

OS:ThermostatSetpoint:DualSetpoint,
  {1412b99a-b3bb-4d48-b642-c271089ecb5b}, !- Handle
  {8c54aa5d-9939-42ab-9046-6415843450e0}, !- Name
  {5d2eb288-a41a-491e-ab91-2da398f4c56b}, !- Heating Setpoint Temperature Schedule Name
  {db6cf562-8109-4b57-83be-034d24d93903}; !- Cooling Setpoint Temperature Schedule Name

OS:Curve:Quadratic,
  {30565efe-df31-4618-8840-bd4d9d07236e}, !- Handle
  Measured_CoolCStandard10Ton_CapFF,      !- Name
  0.7685,                                 !- Coefficient1 Constant
  0.2315,                                 !- Coefficient2 x
  0,                                      !- Coefficient3 x**2
  0.776,                                  !- Minimum Value of x {BasedOnField A2}
  1.197;                                  !- Maximum Value of x {BasedOnField A2}

OS:Curve:Biquadratic,
  {71717490-78da-4669-8b94-67864973e4fa}, !- Handle
  Cool-Cap-fT,                            !- Name
  0.9712123,                              !- Coefficient1 Constant
  -0.015275502,                           !- Coefficient2 x
  0.0014434524,                           !- Coefficient3 x**2
  -0.00039321,                            !- Coefficient4 y
  -6.8364e-006,                           !- Coefficient5 y**2
  -0.0002905956,                          !- Coefficient6 x*y
  -100,                                   !- Minimum Value of x {BasedOnField A2}
  100,                                    !- Maximum Value of x {BasedOnField A2}
  -100,                                   !- Minimum Value of y {BasedOnField A3}
  100;                                    !- Maximum Value of y {BasedOnField A3}

OS:DesignSpecification:OutdoorAir,
  {2398dc32-b8d9-4af5-a0cb-6ea42dce1e3a}, !- Handle
  SZ DSOA SMstore8,                       !- Name
  ,                                       !- Outdoor Air Method
  ,                                       !- Outdoor Air Flow per Person {m3/s-person}
  0.00152,                                !- Outdoor Air Flow per Floor Area {m3/s-m2}
  ,                                       !- Outdoor Air Flow Rate {m3/s}
  ,                                       !- Outdoor Air Flow Air Changes per Hour {1/hr}
  ;                                       !- Outdoor Air Flow Rate Fraction Schedule Name

OS:ThermostatSetpoint:DualSetpoint,
  {3f470657-e272-4653-9c40-d48a548be07c}, !- Handle
  {dee381b4-ffb7-43be-8c8a-3af88e5fb620}, !- Name
  {5d2eb288-a41a-491e-ab91-2da398f4c56b}, !- Heating Setpoint Temperature Schedule Name
  {db6cf562-8109-4b57-83be-034d24d93903}; !- Cooling Setpoint Temperature Schedule Name

OS:SubSurface,
  {92400a80-348b-4629-ae1b-7578a9792395}, !- Handle
  LGstore2_Wall_3_Door_1,                 !- Name
  Door,                                   !- Sub Surface Type
  {74496172-36a5-4845-966c-e468d299a71d}, !- Construction Name
  {3179e71d-2b6b-402c-8899-9c8f4514da9e}, !- Surface Name
  ,                                       !- Outside Boundary Condition Object
  ,                                       !- View Factor to Ground
  ,                                       !- Shading Control Name
  ,                                       !- Frame and Divider Name
  1,                                      !- Multiplier
  ,                                       !- Number of Vertices