
OS:Version,
  {786effbb-1637-4e01-a69d-478b1d820dc1}, !- Handle
  1.8.0;                                  !- Version Identifier

OS:Site,
  {6409d039-08ec-40f0-add5-ca23ec98b566}, !- Handle
  USA IL-CHICAGO-OHARE,                   !- Name
  41.77,                                  !- Latitude {deg}
  -87.75,                                 !- Longitude {deg}
  -6,                                     !- Time Zone {hr}
  190,                                    !- Elevation {m}
  City;                                   !- Terrain

OS:SimulationControl,
  {da370f4b-41f5-45d6-9365-d6f83baf61c6}, !- Handle
  Yes,                                    !- Do Zone Sizing Calculation
  Yes,                                    !- Do System Sizing Calculation
  Yes,                                    !- Do Plant Sizing Calculation
  No,                                     !- Run Simulation for Sizing Periods
  Yes,                                    !- Run Simulation for Weather File Run Periods
  0.04,                                   !- Loads Convergence Tolerance Value
  0.2,                                    !- Temperature Convergence Tolerance Value {deltaC}
  FullInteriorAndExterior,                !- Solar Distribution
  25,                                     !- Maximum Number of Warmup Days
  6;                                      !- Minimum Number of Warmup Days

OS:Surface,
  {053c761f-d331-49b3-b88e-ba6bf45bfba4}, !- Handle
  Office_Wall_West-PPAutoCreateOther,     !- Name
  Wall,                                   !- Surface Type
  {b31c10da-5a61-4d47-9e65-2f174911edd8}, !- Construction Name
  {2fb40142-8d6d-443f-9eaa-368bb5fb924d}, !- Space Name
  Surface,                                !- Outside Boundary Condition
  {0a768506-9eda-4ffc-95b2-bfc0aa5afd59}, !- Outside Boundary Condition Object
  NoSun,                                  !- Sun Exposure
  NoWind,                                 !- Wind Exposure
  ,                                       !- View Factor to Ground
  ,                                       !- Number of Vertices
  26.8875, 13.5765, 6.096,                !- X,Y,Z Vertex 1 {m}
  26.8875, 13.5765, 0,                    !- X,Y,Z Vertex 2 {m}
  26.8875, 22.5515, 0,                    !- X,Y,Z Vertex 3 {m}
  26.8875, 22.5515, 6.096;                !- X,Y,Z Vertex 4 {m}

OS:Construction,
  {b31c10da-5a61-4d47-9e65-2f174911edd8}, !- Handle
  int-walls,                              !- Name
  ,                                       !- Surface Rendering Name
  {4da51476-cd48-4749-8635-c759c7734b19}, !- Layer 1
  {4da51476-cd48-4749-8635-c759c7734b19}; !- Layer 2

OS:Material,
  {4da51476-cd48-4749-8635-c759c7734b19}, !- Handle
  1/2IN Gypsum,                           !- Name
  Smooth,                                 !- Roughness
  0.0127,                                 !- Thickness {m}
  0.16,                                   !- Conductivity {W/m-K}
  784.9,                                  !- Density {kg/m3}
  830,                                    !- Specific Heat {J/kg-K}
  0.9,                                    !- Thermal Absorptance
  0.92,                                   !- Solar Absorptance
  0.92;                                   !- Visible Absorptance

OS:Space,
  {2fb40142-8d6d-443f-9eaa-368bb5fb924d}, !- Handle
  DryStorage,                             !- Name
  {1bb9731b-3be7-4729-bd2d-1e6a2e032969}, !- Space Type Name
  ,                                       !- Default Construction Set Name
  ,                                       !- Default Schedule Set Name
  0,                                      !- Direction of Relative North {deg}
  0,                                      !- X Origin {m}
  0,                                      !- Y Origin {m}
  0,                                      !- Z Origin {m}
  {4d1d0a08-6c11-4dd6-a4ed-ede7a7e3107d}, !- Building Story Name
  {bf244465-d28f-4ee4-906a-ff9572305803}, !- Thermal Zone Name
  Yes,                                    !- Part of Total Floor Area
  {13b15f21-352b-46fe-8a53-e6fcf8bc14eb}; !- Design Specification Outdoor Air Object Name

OS:ThermostatSetpoint:DualSetpoint,
  {599e63c3-db03-483d-b3f8-e0dbaccd26f1}, !- Handle
  {224be7e8-41b2-4f20-9e43-601f48e621b1}, !- Name
  {246d6919-8a45-4eff-9634-b202707f5d4f}, !- Heating Setpoint Temperature Schedule Name
  {c8b18ce9-3275-40b4-8577-732efcd05b3f}; !- Cooling Setpoint Temperature Schedule Name

OS:Schedule:Compact,
  {246d6919-8a45-4eff-9634-b202707f5d4f}, !- Handle
  HTGSETP_SCH,                            !- Name
  {7d1d9672-93fd-466c-9993-f218f25ad01e}, !- Schedule Type Limits Name
  Through: 12/31,                         !- Field 1
  For SummerDesignDay,                    !- Field 2
  Until: 24:00,                           !- Field 3
  15.6,                                   !- Field 4
  For: AllOtherDays,                      !- Field 5
  Until:  6:00,                           !- Field 6
  15.6,                                   !- Field 7
  Until: 22:00,                           !- Field 8
  21.,                                    !- Field 9
  Until: 24:00,                           !- Field 10
  15.6;                                   !- Field 11

OS:ScheduleTypeLimits,
  {7d1d9672-93fd-466c-9993-f218f25ad01e}, !- Handle
  Temperature,                            !- Name
  -60,                                    !- Lower Limit Value {BasedOnField A4}
  200,                                    !- Upper Limit Value {BasedOnField A4}
  CONTINUOUS,                             !- Numeric Type
  Temperature;                            !- Unit Type

OS:Schedule:Compact,
  {c8b18ce9-3275-40b4-8577-732efcd05b3f}, !- Handle
  CLGSETP_SCH,                            !- Name
  {7d1d9672-93fd-466c-9993-f218f25ad01e}, !- Schedule Type Limits Name
  Through: 12/31,                         !- Field 1
  For WinterDesignDay,                    !- Field 2
  Until: 24:00,                           !- Field 3
  30.0,                                   !- Field 4
  For: AllOtherDays,                      !- Field 5
  Until: 6:00,                            !- Field 6
  30.0,                                   !- Field 7
  Until: 22:00,                           !- Field 8
  24.0,                                   !- Field 9
  Until: 24:00,                           !- Field 10
  30.0;                                   !- Field 11

OS:Schedule:Compact,
  {fbed26a9-a76b-4d35-b03e-97e6f41487db}, !- Handle
  Bakery_Case:1_WALKINFREEZER_CaseCreditReduxSched, !- Name
  {a7e773f2-f591-4fe0-b444-58307c2ef70e}, !- Schedule Type Limits Name
  Through: 12/31,                         !- Field 1
  For:AllDays,                            !- Field 2
  Interpolate:No,                         !- Field 3
  Until: 7:00,                            !- Field 4
  0.2,                                    !- Field 5
  Until: 21:00,                           !- Field 6
  0.4,                                    !- Field 7
  Until: 24:00,                           !- Field 8
  0.2;                                    !- Field 9

OS:ScheduleTypeLimits,
  {a7e773f2-f591-4fe0-b444-58307c2ef70e}, !- Handle
  Fraction,                               !- Name
  0,                                      !- Lower Limit Value {BasedOnField A4}
  1,                                      !- Upper Limit Value {BasedOnField A4}
  CONTINUOUS;                             !- Numeric Type

OS:Curve:Biquadratic,
  {0a68335c-ebc0-403d-a330-0a677bdbdc8b}, !- Handle
  Cool-EIR-fT,                            !- Name
  0.28687133,                             !- Coefficient1 Constant
  0.023902164,                            !- Coefficient2 x
  -0.000810648,                           !- Coefficient3 x**2
  0.013458546,                            !- Coefficient4 y
  0.0003389364,                           !- Coefficient5 y**2
  -0.0004870044,                          !- Coefficient6 x*y
  -100,                                   !- Minimum Value of x {BasedOnField A2}
  100,                                    !- Maximum Value of x {BasedOnField A2}
  -100,                                   !- Minimum Value of y {BasedOnField A3}
  100;                                    !- Maximum Value of y {BasedOnField A3}

OS:Surface,
  {77750aab-e1b3-4860-99a8-d730f38ab8b5}, !- Handle
  Bakery_Wall__4,                         !- Name
  Wall,                                   !- Surface Type
  {b31c10da-5a61-4d47-9e65-2f174911edd8}, !- Construction Name
  {8e8ab6e1-cad2-4903-afe1-c5dfcf6a2dbe}, !- Space Name
  Surface,                                !- Outside Boundary Condition
  {eff1efb9-d63e-4373-b049-4e56bacfc66d}, !- Outside Boundary Condition Object
  NoSun,                                  !- Sun Exposure
  NoWind,                                 !- Wind Exposure
  ,                                       !- View Factor to Ground
  ,                                       !- Number of Vertices
  26.8875, -9.1251, 6.096,                !- X,Y,Z Vertex 1 {m}
  26.8875, -9.1251, 0,                    !- X,Y,Z Vertex 2 {m}
  26.8875, -30.2429, 0,                   !- X,Y,Z Vertex 3 {m}
  26.8875, -30.2429, 6.096;               !- X,Y,Z Vertex 4 {m}

OS:Space,
  {8e8ab6e1-cad2-4903-afe1-c5dfcf6a2dbe}, !- Handle
  Bakery,                                 !- Name
  {7d32ebc1-49c6-4d25-b580-ec5f8645949d}, !- Space Type Name
  ,                                       !- Default Construction Set Name
  ,                                       !- Default Schedule Set Name
  0,                                      !- Direction of Relative North {deg}
  0,                                      !- X Origin {m}
  0,                                      !- Y Origin {m}
  0,                                      !- Z Origin {m}
  {4d1d0a08-6c11-4dd6-a4ed-ede7a7e3107d}, !- Building Story Name
  {6d8273a1-bc9b-4238-8674-050a8b823732}, !- Thermal Zone Name
  Yes,                                    !- Part of Total Floor Area
  {4335d0ab-59ed-4a37-bf78-68ccf718f429}; !- Design Specification Outdoor Air Object Name

OS:ThermostatSetpoint:DualSetpoint,
  {781037f5-8758-452b-81e6-571da9be53f4}, !- Handle
  {3076fb2a-e868-46b7-b904-a77881d4e79f}, !- Name
  {246d6919-8a45-4eff-9634-b202707f5d4f}, !- Heating Setpoint Temperature Schedule Name
  {c8b18ce9-3275-40b4-8577-732efcd05b3f}; !- Cooling Setpoint Temperature Schedule Name

OS:Surface,
  {936c2d88-a19a-4d3a-9571-f18902ee2d7e}, !- Handle
  Sales_Ceiling,                          !- Name
  RoofCeiling,                            !- Surface Type
  {f7b965e3-5605-4b75-8c2e-e79cbf05e104}, !- Construction Name
  {503a6a53-5daa-41a3-8b5a-4f90c0e57f76}, !- Space Name
  Outdoors,                               !- Outside Boundary Condition
  ,                                       !- Outside Boundary Condition Object
  SunExposed,                             !- Sun Exposure
  WindExposed,                            !- Wind Exposure
  ,                                       !- View Factor to Ground
  ,                                       !- Number of Vertices
  26.8875, -30.2429, 6.096,               !- X,Y,Z Vertex 1 {m}
  26.8875, 13.5765, 6.096,                !- X,Y,Z Vertex 2 {m}
  -26.1698, 13.5765, 6.096,               !- X,Y,Z Vertex 3 {m}
  -26.1698, -30.2429, 6.096;              !- X,Y,Z Vertex 4 {m}

OS:Construction,
  {f7b965e3-5605-4b75-8c2e-e79cbf05e104}, !- Handle
  IEAD Non-res Roof,                      !- Name
  ,                                       !- Surface Rendering Name
  {64a1e9b1-f35c-4596-908a-bdef22593f6d}, !- Layer 1
  {7d4deeb7-d793-4346-9e16-33f5013ae88b}, !- Layer 2
  {7341d217-a9f9-421e-b09e-551650f50360}; !- Layer 3

OS:Material,
  {64a1e9b1-f35c-4596-908a-bdef22593f6d}, !- Handle
  Roof Membrane,                          !- Name
  VeryRough,                              !- Roughness
  0.0095,                                 !- Thickness {m}
  0.16,                                   !- Conductivity {W/m-K}
  1121.29,                                !- Density {kg/m3}
  1460,                                   !- Specific Heat {J/kg-K}
  0.9,                                    !- Thermal Absorptance
  0.7,                                    !- Solar Absorptance
  0.7;                                    !- Visible Absorptance

OS:Material,
  {7d4deeb7-d793-4346-9e16-33f5013ae88b}, !- Handle
  IEAD NonRes Roof Insulation,            !- Name
  MediumRough,                            !- Roughness
  0.127338688569477,                      !- Thickness {m}
  0.049,                                  !- Conductivity {W/m-K}
  265,                                    !- Density {kg/m3}
  836.8,                                  !- Specific Heat {J/kg-K}
  0.9,                                    !- Thermal Absorptance
  0.7,                                    !- Solar Absorptance
  0.7;                                    !- Visible Absorptance

OS:Material,
  {7341d217-a9f9-421e-b09e-551650f50360}, !- Handle
  Metal Decking,                          !- Name
  MediumSmooth,                           !- Roughness
  0.0015,                                 !- Thickness {m}
  45.006,                                 !- Conductivity {W/m-K}
  7680,                                   !- Density {kg/m3}
  418.4,                                  !- Specific Heat {J/kg-K}
  0.9,                                    !- Thermal Absorptance
  0.7,                                    !- Solar Absorptance
  0.3;                                    !- Visible Absorptance

OS:Space,
  {503a6a53-5daa-41a3-8b5a-4f90c0e57f76}, !- Handle
  Sales,                                  !- Name
  {7d32ebc1-49c6-4d25-b580-ec5f8645949d}, !- Space Type Name
  ,                                       !- Default Construction Set Name
  ,                                       !- Default Schedule Set Name
  0,                                      !- Direction of Relative North {deg}
  0,                                      !- X Origin {m}
  0,                                      !- Y Origin {m}
  0,                                      !- Z Origin {m}
  {4d1d0a08-6c11-4dd6-a4ed-ede7a7e3107d}, !- Building Story Name
  {bb36b4df-5e2e-430e-a1cf-716e8f6bc64f}, !- Thermal Zone Name
  Yes,                                    !- Part of Total Floor Area
  {6a34f6d5-2440-4743-a423-bc0904ccfd10}; !- Design Specification Outdoor Air Object Name

OS:ThermostatSetpoint:DualSetpoint,
  {53130981-bc14-432c-932c-03b4c16d7b4c}, !- Handle
  {722421fb-5915-4d42-b592-b15d46e4f52d}, !- Name
  {246d6919-8a45-4eff-9634-b202707f5d4f}, !- Heating Setpoint Temperature Schedule Name
  {c8b18ce9-3275-40b4-8577-732efcd05b3f}; !- Cooling Setpoint Temperature Schedule Name

OS:Meter,
  {91c4b3e3-1c3d-4809-a089-cc768f2fc55e}, !- Handle
  WaterSystems:Electricity,               !- Name
  hourly,                                 !- Reporting Frequency
  False,                                  !- Meter File Only
  False;                                  !- Cumulative

OS:Material,
  {7c611912-6446-4327-b793-7cb642ee6328}, !- Handle
  Std Wood 6inch,                         !- Name
  MediumSmooth,                           !- Roughness
  0.15,                                   !- Thickness {m}
  0.12,                                   !- Conductivity {W/m-K}
  540,                                    !- Density {kg/m3}
  1210,                                   !- Specific Heat {J/kg-K}
  0.9,                                    !- Thermal Absorptance
  0.7,                                    !- Solar Absorptance
  0.7;                                    !- Visible Absorptance

OS:DesignSpecification:OutdoorAir,
  {4335d0ab-59ed-4a37-bf78-68ccf718f429}, !- Handle
  SZ DSOA Bakery,                         !- Name
  ,                                       !- Outdoor Air Method
  ,                                       !- Outdoor Air Flow per Person {m3/s-person}
  0.0015,                                 !- Outdoor Air Flow per Floor Area {m3/s-m2}
  ,                                       !- Outdoor Air Flow Rate {m3/s}
  ,                                       !- Outdoor Air Flow Air Changes per Hour {1/hr}
  ;                                       !- Outdoor Air Flow Rate Fraction Schedule Name

OS:Schedule:Compact,
  {9324111b-c52e-42b7-aa4c-78baccf5d57e}, !- Handle
  Sales_Case:7_WALKINFREEZER_CaseDripDown2aDaySched, !- Name
  {faa75435-af91-4c9c-8d54-dc9304b6d68d}, !- Schedule Type Limits Name
  Through: 12/31,                         !- Field 1
  For:AllDays,                            !- Field 2
  Interpolate:Yes,                        !- Field 3
  Until: 11:00,                           !- Field 4
  0,                                      !- Field 5
  Until: 11:30,                           !- Field 6
  1,                                      !- Field 7
  Until: 23:00,                           !- Field 8
  0,                                      !- Field 9
  Until: 23:30,                           !- Field 10
  1,                                      !- Field 11
  Until: 24:00,                           !- Field 12
  0;                                      !- Field 13

OS:ScheduleTypeLimits,
  {faa75435-af91-4c9c-8d54-dc9304b6d68d}, !- Handle
  On/Off,                                 !- Name
  0,                                      !- Lower Limit Value {BasedOnField A4}
  1,                                      !- Upper Limit Value {BasedOnField A4}
  DISCRETE,                               !- Numeric Type
  Availability;                           !- Unit Type

OS:Schedule:Compact,
  {e57b3e50-fe7e-41b2-a9c3-61936212fa12}, !- Handle
  INFIL_HALF_ON_SCH,                      !- Name
  {a7e773f2-f591-4fe0-b444-58307c2ef70e}, !- Schedule Type Limits Name
  Through: 12/31,                         !- Field 1
  For: Weekdays SummerDesignDay,          !- Field 2
  Until: 06:00,                           !- Field 3
  1.0,                                    !- Field 4
  Until: 22:00,                           !- Field 5
  0.5,                                    !- Field 6
  Until: 24:00,                           !- Field 7
  1.0,                                    !- Field 8
  For: Saturday,                          !- Field 9
  Until: 06:00,                           !- Field 10
  1.0,                                    !- Field 11
  Until: 22:00,                           !- Field 12
  0.5,                                    !- Field 13
  Until: 24:00,                           !- Field 14
  1.0,                                    !- Field 15
  For: WinterDesignDay,                   !- Field 16
  Until: 24:00,                           !- Field 17
  1.0,                                    !- Field 18
  For: Sunday Holidays AllOtherDays,      !- Field 19
  Until: 08:00,                           !- Field 20
  1.0,                                    !- Field 21
  Until: 17:00,                           !- Field 22
  0.5,                                    !- Field 23
  Until: 24:00,                           !- Field 24
  1.0;                                    !- Field 25

OS:Meter,
  {ab5b5621-73d7-4906-a750-a0fe674a5304}, !- Handle
  Pumps:Electricity,                      !- Name
  hourly,                                 !- Reporting Frequency
  False,                                  !- Meter File Only
  False;                                  !- Cumulative

OS:Schedule:Compact,
  {a71f462f-3132-42d7-b9c0-cf607944c18d}, !- Handle
  Produce_Case:1_ MULTIDECKDIARYANDDELICASE_CaseDefrost2aDaySched, !- Name
  {faa75435-af91-4c9c-8d54-dc9304b6d68d}, !- Schedule Type Limits Name
  Through: 12/31,                         !- Field 1
  For:AllDays,                            !- Field 2
  Interpolate:Yes,                        !- Field 3
  Until: 11:00,                           !- Field 4
  0,                                      !- Field 5
  Until: 11:20,                           !- Field 6
  1,                                      !- Field 7
  Until: 23:00,                           !- Field 8
  0,                                      !- Field 9
  Until: 23:20,                           !- Field 10
  1,                                      !- Field 11
  Until: 24:00,                           !- Field 12
  0;                                      !- Field 13

OS:Meter,
  {a8241c41-daab-4a7a-863c-a857f0be12e8}, !- Handle
  InteriorEquipment:Electricity,          !- Name
  hourly,                                 !- Reporting Frequency
  False,                                  !- Meter File Only
  False;                                  !- Cumulative

OS:Meter,
  {71262946-9a87-41a3-9640-8e50522c329b}, !- Handle
  Cooling:Electricity,                    !- Name
  hourly,                                 !- Reporting Frequency
  False,                                  !- Meter File Only
  False;                                  !- Cumulative

OS:Schedule:Compact,
  {ab8e309e-2b18-4b2f-a018-155e96c2b770}, !- Handle
  Deli_Case:1_ MULTIDECKDIARYANDDELICASE_CaseDripDown2aDaySched, !- Name
  {faa75435-af91-4c9c-8d54-dc9304b6d68d}, !- Schedule Type Limits Name
  Through: 12/31,                         !- Field 1
  For:AllDays,                            !- Field 2
  Interpolate:Yes,                        !- Field 3
  Until: 11:00,                           !- Field 4
  0,                                      !- Field 5
  Until: 11:30,                           !- Field 6
  1,                                      !- Field 7
  Until: 23:00,                           !- Field 8
  0,                                      !- Field 9
  Until: 23:30,                           !- Field 10
  1,                                      !- Field 11
  Until: 24:00,                           !- Field 12
  0;                                      !- Field 13

OS:Curve:Biquadratic,
  {5c4a0c10-855c-4fcb-addf-8eb40e5622df}, !- Handle
  Measured_LowSpeedCoolCapLSFT,           !- Name
  0.4136,                                 !- Coefficient1 Constant
  0.03105,                                !- Coefficient2 x
  0,                                      !- Coefficient3 x**2
  0.006952,                               !- Coefficient4 y
  -0.0002128,                             !- Coefficient5 y**2
  0,                                      !- Coefficient6 x*y
  11.1,                                   !- Minimum Value of x {BasedOnField A2}
  29.4,                                   !- Maximum Value of x {BasedOnField A2}
  10,                                     !- Minimum Value of y {BasedOnField A3}
  50.3;                                   !- Maximum Value of y {BasedOnField A3}

OS:Curve:Cubic,
  {2d97023e-aab6-435d-b55b-6cdc68d67976}, !- Handle
  Sales_Case:3_GLASSDOORFROZENFOODSingleShelfHorizontal_LatentEnergyMult, !- Name
  0.020376,                               !- Coefficient1 Constant
  0.00024378,                             !- Coefficient2 x
  1.14e-005,                              !- Coefficient3 x**2
  1.811e-007,                             !- Coefficient4 x**3
  -35,                                    !- Minimum Value of x {BasedOnField A2}
  20;                                     !- Maximum Value of x {BasedOnField A2}

OS:Construction,
  {46d79d58-2f4b-42d3-ab5d-f0f8f47f6e7b}, !- Handle
  ext-slab,                               !- Name
  ,                                       !- Surface Rendering Name
  {ece5ef5a-c7ba-4d4e-9371-842559ed993a}; !- Layer 1

OS:Material,
  {ece5ef5a-c7ba-4d4e-9371-842559ed993a}, !- Handle
  HW CONCRETE,                            !- Name
  Rough,                                  !- Roughness
  0.1016,                                 !- Thickness {m}
  1.311,                                  !- Conductivity {W/m-K}
  2240,                                   !- Density {kg/m3}
  836.8,                                  !- Specific Heat {J/kg-K}
  0.9,                                    !- Thermal Absorptance
  0.7,                                    !- Solar Absorptance
  0.7;                                    !- Visible Absorptance

OS:People:Definition,
  {1a62f397-676f-4c00-b482-7470e037e3a7}, !- Handle
  Deli People Definition,                 !- Name
  Area/Person,                            !- Number of People Calculation Method
  ,                                       !- Number of People {people}
  ,                                       !- People per Space Floor Area {person/m2}
  11.61,                                  !- Space Floor Area per Person {m2/person}
  0.3,                                    !- Fraction Radiant
  ,                                       !- Sensible Heat Fraction
  ,                                       !- Carbon Dioxide Generation Rate {m3/s-W}
  No,                                     !- Enable ASHRAE 55 Comfort Warnings
  ZoneAveraged;                           !- Mean Radiant Temperature Calculation Type

OS:People,
  {75a5003d-faa6-4ddd-bc2e-9e7f6adfd256}, !- Handle
  Deli People,                            !- Name
  {1a62f397-676f-4c00-b482-7470e037e3a7}, !- People Definition Name
  {4d64b3a9-6ecd-4448-8bb1-55c6720cf5a5}, !- Space or SpaceType Name
  {ffd8a7a9-f152-4378-9128-55f862486ef0}, !- Number of People Schedule Name
  {ddafce9a-35eb-4e36-bcc3-24431d2d9c8e}, !- Activity Level Schedule Name
  ,                                       !- Surface Name/Angle Factor List Name
  {9c993f11-dd81-4589-b0f9-d515e4fe7d5d}; !- Work Efficiency Schedule Name

OS:Space,
  {4d64b3a9-6ecd-4448-8bb1-55c6720cf5a5}, !- Handle
  Deli,                                   !- Name
  {7d32ebc1-49c6-4d25-b580-ec5f8645949d}, !- Space Type Name
  ,                                       !- Default Construction Set Name
  ,                                       !- Default Schedule Set Name
  0,                                      !- Direction of Relative North {deg}
  0,                                      !- X Origin {m}
  0,                                      !- Y Origin {m}
  0,                                      !- Z Origin {m}
  {4d1d0a08-6c11-4dd6-a4ed-ede7a7e3107d}, !- Building Story Name
  {6d8273a1-bc9b-4238-8674-050a8b823732}, !- Thermal Zone Name
  Yes,                                    !- Part of Total Floor Area
  {c45f2e7c-26a8-40ff-8c57-e9e7dfe7726a}; !- Design Specification Outdoor Air Object Name

OS:ThermostatSetpoint:DualSetpoint,
  {bbe41135-f6e6-442f-91fc-396d07a9ab83}, !- Handle
  {9c137be1-f7e7-4023-9de5-fc35e5fc18fc}, !- Name
  {246d6919-8a45-4eff-9634-b202707f5d4f}, !- Heating Setpoint Temperature Schedule Name
  {c8b18ce9-3275-40b4-8577-732efcd05b3f}; !- Cooling Setpoint Temperature Schedule Name

OS:Schedule:Compact,
  {ffd8a7a9-f152-4378-9128-55f862486ef0}, !- Handle
  BLDG_OCC_SCH,                           !- Name
  {a7e773f2-f591-4fe0-b444-58307c2ef70e}, !- Schedule Type Limits Name
  Through: 12/31,                         !- Field 1
  For: Weekdays,                          !- Field 2
  Until: 06:00,                           !- Field 3
  0.0,                                    !- Field 4
  Until: 08:00,                           !- Field 5
  0.1,                                    !- Field 6
  Until: 09:00,                           !- Field 7
  0.2,                                    !- Field 8
  Until: 11:00,                           !- Field 9
  0.5,                                    !- Field 10
  Until: 15:00,                           !- Field 11
  0.7,                                    !- Field 12
  Until: 16:00,                           !- Field 13
  0.8,                                    !- Field 14
  Until: 17:00,                           !- Field 15
  0.7,                                    !- Field 16
  Until: 19:00,                           !- Field 17
  0.5,                                    !- Field 18
  Until: 22:00,                           !- Field 19
  0.3,                                    !- Field 20
  Until: 24:00,                           !- Field 21
  0.0,                                    !- Field 22
  For: SummerDesignDay,                   !- Field 23
  Until: 24:00,                           !- Field 24
  1.0,                                    !- Field 25
  For: Saturday,                          !- Field 26
  Until: 06:00,                           !- Field 27
  0.0,                                    !- Field 28
  Until: 08:00,                           !- Field 29
  0.1,                                    !- Field 30
  Until: 09:00,                           !- Field 31
  0.2,                                    !- Field 32
  Until: 10:00,                           !- Field 33
  0.5,                                    !- Field 34
  Until: 11:00,                           !- Field 35
  0.6,                                    !- Field 36
  Until: 17:00,                           !- Field 37
  0.8,                                    !- Field 38
  Until: 18:00,                           !- Field 39
  0.6,                                    !- Field 40
  Until: 21:00,                           !- Field 41
  0.2,                                    !- Field 42
  Until: 22:00,                           !- Field 43
  0.1,                                    !- Field 44
  Until: 24:00,                           !- Field 45
  0.0,                                    !- Field 46
  For: WinterDesignDay,                   !- Field 47
  Until: 24:00,                           !- Field 48
  0.0,                                    !- Field 49
  For: Sunday Holidays AllOtherDays,      !- Field 50
  Until: 06:00,                           !- Field 51
  0.0,                                    !- Field 52
  Until: 10:00,                           !- Field 53
  0.1,                                    !- Field 54
  Until: 12:00,                           !- Field 55
  0.2,                                    !- Field 56
  Until: 17:00,                           !- Field 57
  0.4,                                    !- Field 58
  Until: 18:00,                           !- Field 59