
OS:Version,
  {9cdabb0c-84fc-4d73-8268-a688d3d34cc0}, !- Handle
  1.8.0;                                  !- Version Identifier

OS:Site,
  {9486ae8b-30ac-4473-8d19-8766e003ae91}, !- Handle
  USA IL-CHICAGO-OHARE,                   !- Name
  41.77,                                  !- Latitude {deg}
  -87.75,                                 !- Longitude {deg}
  -6,                                     !- Time Zone {hr}
  190,                                    !- Elevation {m}
  City;                                   !- Terrain

OS:SimulationControl,
  {9a0b242c-fbc5-49a1-bf08-6ae4e7f118bb}, !- Handle
  Yes,                                    !- Do Zone Sizing Calculation
  Yes,                                    !- Do System Sizing Calculation
  Yes,                                    !- Do Plant Sizing Calculation
  No,                                     !- Run Simulation for Sizing Periods
  Yes,                                    !- Run Simulation for Weather File Run Periods
  0.04,                                   !- Loads Convergence Tolerance Value
  0.2,                                    !- Temperature Convergence Tolerance Value {deltaC}
  FullInteriorAndExterior,                !- Solar Distribution
  25,                                     !- Maximum Number of Warmup Days
  6;                                      !- Minimum Number of Warmup Days

OS:SpaceInfiltration:DesignFlowRate,
  {215b96c8-cb6f-4ce6-ac4f-aa9811f4fb70}, !- Handle
  Sales_Infiltration,                     !- Name
  {242026a6-8599-42ac-8ce6-62495ccd4a58}, !- Space or SpaceType Name
  {17270fbf-409e-4758-b2a3-845c6dfb90ca}, !- Schedule Name
  Flow/ExteriorArea,                      !- Design Flow Rate Calculation Method
  ,                                       !- Design Flow Rate {m3/s}
  ,                                       !- Flow per Space Floor Area {m3/s-m2}
  0.000302,                               !- Flow per Exterior Surface Area {m3/s-m2}
  ,                                       !- Air Changes per Hour {1/hr}
  1,                                      !- Constant Term Coefficient
  0,                                      !- Temperature Term Coefficient
  0,                                      !- Velocity Term Coefficient
  0;                                      !- Velocity Squared Term Coefficient

OS:Space,
  {242026a6-8599-42ac-8ce6-62495ccd4a58}, !- Handle
  Sales,                                  !- Name
  {415f3460-e5e4-46da-b4bd-6c9626f02df0}, !- Space Type Name
  ,                                       !- Default Construction Set Name
  ,                                       !- Default Schedule Set Name
  0,                                      !- Direction of Relative North {deg}
  0,                                      !- X Origin {m}
  0,                                      !- Y Origin {m}
  0,                                      !- Z Origin {m}
  {52bfeaa9-dfb6-4dab-8068-63023c605278}, !- Building Story Name
  {8a6e1e27-2787-4c35-a880-ed9e97716db4}, !- Thermal Zone Name
  Yes,                                    !- Part of Total Floor Area
  {498ddff2-9f64-4efa-be23-2e5fa703c998}; !- Design Specification Outdoor Air Object Name

OS:ThermostatSetpoint:DualSetpoint,
  {3fc6b054-755c-4d15-a253-f84a99a6608b}, !- Handle
  {37c1b383-95ff-4afe-98b8-731d4d4aad89}, !- Name
  {27e99b2d-f8ad-4586-857e-aaac43962729}, !- Heating Setpoint Temperature Schedule Name
  {093ed9cd-c8c0-44ab-b886-c50148c20f1b}; !- Cooling Setpoint Temperature Schedule Name

OS:Schedule:Compact,
  {27e99b2d-f8ad-4586-857e-aaac43962729}, !- Handle
  HTGSETP_SCH,                            !- Name
  {3e0f412a-9f0f-449a-8be6-29810bf7286b}, !- Schedule Type Limits Name
  Through: 12/31,                         !- Field 1
  For SummerDesignDay,                    !- Field 2
  Until: 24:00,                           !- Field 3
  15.6,                                   !- Field 4
  For: AllOtherDays,                      !- Field 5
  Until:  6:00,                           !- Field 6
  15.6,                                   !- Field 7
  Until: 22:00,                           !- Field 8
  21.,                                    !- Field 9
  Until: 24:00,                           !- Field 10
  15.6;                                   !- Field 11

OS:ScheduleTypeLimits,
  {3e0f412a-9f0f-449a-8be6-29810bf7286b}, !- Handle
  Temperature,                            !- Name
  -60,                                    !- Lower Limit Value {BasedOnField A4}
  200,                                    !- Upper Limit Value {BasedOnField A4}
  CONTINUOUS,                             !- Numeric Type
  Temperature;                            !- Unit Type

OS:Schedule:Compact,
  {093ed9cd-c8c0-44ab-b886-c50148c20f1b}, !- Handle
  CLGSETP_SCH,                            !- Name
  {3e0f412a-9f0f-449a-8be6-29810bf7286b}, !- Schedule Type Limits Name
  Through: 12/31,                         !- Field 1
  For WinterDesignDay,                    !- Field 2
  Until: 24:00,                           !- Field 3
  30.0,                                   !- Field 4
  For: AllOtherDays,                      !- Field 5
  Until: 6:00,                            !- Field 6
  30.0,                                   !- Field 7
  Until: 22:00,                           !- Field 8
  24.0,                                   !- Field 9
  Until: 24:00,                           !- Field 10
  30.0;                                   !- Field 11

OS:Schedule:Compact,
  {17270fbf-409e-4758-b2a3-845c6dfb90ca}, !- Handle
  INFIL_HALF_ON_SCH,                      !- Name
  {79059134-3149-493e-bb1f-e4d219ab0fd1}, !- Schedule Type Limits Name
  Through: 12/31,                         !- Field 1
  For: Weekdays SummerDesignDay,          !- Field 2
  Until: 06:00,                           !- Field 3
  1.0,                                    !- Field 4
  Until: 22:00,                           !- Field 5
  0.5,                                    !- Field 6
  Until: 24:00,                           !- Field 7
  1.0,                                    !- Field 8
  For: Saturday,                          !- Field 9
  Until: 06:00,                           !- Field 10
  1.0,                                    !- Field 11
  Until: 22:00,                           !- Field 12
  0.5,                                    !- Field 13
  Until: 24:00,                           !- Field 14
  1.0,                                    !- Field 15
  For: WinterDesignDay,                   !- Field 16
  Until: 24:00,                           !- Field 17
  1.0,                                    !- Field 18
  For: Sunday Holidays AllOtherDays,      !- Field 19
  Until: 08:00,                           !- Field 20
  1.0,                                    !- Field 21
  Until: 17:00,                           !- Field 22
  0.5,                                    !- Field 23
  Until: 24:00,                           !- Field 24
  1.0;                                    !- Field 25

OS:ScheduleTypeLimits,
  {79059134-3149-493e-bb1f-e4d219ab0fd1}, !- Handle
  Fraction,                               !- Name
  0,                                      !- Lower Limit Value {BasedOnField A4}
  1,                                      !- Upper Limit Value {BasedOnField A4}
  CONTINUOUS;                             !- Numeric Type

OS:Schedule:Compact,
  {5779fecd-a51b-4ca2-b2ed-bc1acda95eec}, !- Handle
  Sales_Case:2_ MULTIDECKDIARYANDDELICASE_CaseDefrost2aDaySched, !- Name
  {96fb2da7-4e75-4735-a4fb-1194e576ddfc}, !- Schedule Type Limits Name
  Through: 12/31,                         !- Field 1
  For:AllDays,                            !- Field 2
  Interpolate:Yes,                        !- Field 3
  Until: 11:00,                           !- Field 4
  0,                                      !- Field 5
  Until: 11:20,                           !- Field 6
  1,                                      !- Field 7
  Until: 23:00,                           !- Field 8
  0,                                      !- Field 9
  Until: 23:20,                           !- Field 10
  1,                                      !- Field 11
  Until: 24:00,                           !- Field 12
  0;                                      !- Field 13

OS:ScheduleTypeLimits,
  {96fb2da7-4e75-4735-a4fb-1194e576ddfc}, !- Handle
  On/Off,                                 !- Name
  0,                                      !- Lower Limit Value {BasedOnField A4}
  1,                                      !- Upper Limit Value {BasedOnField A4}
  DISCRETE,                               !- Numeric Type
  Availability;                           !- Unit Type

OS:Surface,
  {84771944-37ca-45d0-a070-0a407c557fc0}, !- Handle
  Office_Wall_South,                      !- Name
  Wall,                                   !- Surface Type
  {ae42a8de-aa3c-4301-b980-7d525334b928}, !- Construction Name
  {592412fe-3e9d-4350-98b0-67a9a9ddd2d9}, !- Space Name
  Surface,                                !- Outside Boundary Condition
  {94f0046d-ec7c-490f-996c-bde6bf20a931}, !- Outside Boundary Condition Object
  NoSun,                                  !- Sun Exposure
  NoWind,                                 !- Wind Exposure
  ,                                       !- View Factor to Ground
  ,                                       !- Number of Vertices
  26.8875, 13.5765, 6.096,                !- X,Y,Z Vertex 1 {m}
  26.8875, 13.5765, 0,                    !- X,Y,Z Vertex 2 {m}
  36.7863, 13.5765, 0,                    !- X,Y,Z Vertex 3 {m}
  36.7863, 13.5765, 6.096;                !- X,Y,Z Vertex 4 {m}

OS:Construction,
  {ae42a8de-aa3c-4301-b980-7d525334b928}, !- Handle
  int-walls,                              !- Name
  ,                                       !- Surface Rendering Name
  {17e68c63-4904-421e-aa27-c2efcedae92b}, !- Layer 1
  {17e68c63-4904-421e-aa27-c2efcedae92b}; !- Layer 2

OS:Material,
  {17e68c63-4904-421e-aa27-c2efcedae92b}, !- Handle
  1/2IN Gypsum,                           !- Name
  Smooth,                                 !- Roughness
  0.0127,                                 !- Thickness {m}
  0.16,                                   !- Conductivity {W/m-K}
  784.9,                                  !- Density {kg/m3}
  830,                                    !- Specific Heat {J/kg-K}
  0.9,                                    !- Thermal Absorptance
  0.92,                                   !- Solar Absorptance
  0.92;                                   !- Visible Absorptance

OS:Space,
  {592412fe-3e9d-4350-98b0-67a9a9ddd2d9}, !- Handle
  Office,                                 !- Name
  {e43fc36c-3f8b-4c5b-8ff7-6759272fd4cf}, !- Space Type Name
  ,                                       !- Default Construction Set Name
  ,                                       !- Default Schedule Set Name
  0,                                      !- Direction of Relative North {deg}
  0,                                      !- X Origin {m}
  0,                                      !- Y Origin {m}
  0,                                      !- Z Origin {m}
  {52bfeaa9-dfb6-4dab-8068-63023c605278}, !- Building Story Name
  {7802e684-1fbd-4d95-a034-67b2b70c1677}, !- Thermal Zone Name
  Yes,                                    !- Part of Total Floor Area
  {d41bc4ae-b26e-4b5c-95f8-e5c1d56a2073}; !- Design Specification Outdoor Air Object Name

OS:ThermostatSetpoint:DualSetpoint,
  {a8c595c5-dcaf-4eb1-b46b-3ca3020ae8b9}, !- Handle
  {ba2e309e-a9a9-4ebe-9fab-602388a6251d}, !- Name
  {27e99b2d-f8ad-4586-857e-aaac43962729}, !- Heating Setpoint Temperature Schedule Name
  {093ed9cd-c8c0-44ab-b886-c50148c20f1b}; !- Cooling Setpoint Temperature Schedule Name

OS:Space,
  {2d8fdf11-8b04-4c93-bee9-8165cdcfa522}, !- Handle
  Deli,                                   !- Name
  {415f3460-e5e4-46da-b4bd-6c9626f02df0}, !- Space Type Name
  ,                                       !- Default Construction Set Name
  ,                                       !- Default Schedule Set Name
  0,                                      !- Direction of Relative North {deg}
  0,                                      !- X Origin {m}
  0,                                      !- Y Origin {m}
  0,                                      !- Z Origin {m}
  {52bfeaa9-dfb6-4dab-8068-63023c605278}, !- Building Story Name
  {8ed50e5e-5672-418a-bd82-c60d669855e4}, !- Thermal Zone Name
  Yes,                                    !- Part of Total Floor Area
  {2a8082b6-f679-493b-ba18-dca9250914c8}; !- Design Specification Outdoor Air Object Name

OS:ThermostatSetpoint:DualSetpoint,
  {dcc0cdd2-615c-4e10-a278-d8f20b9fc705}, !- Handle
  {c9bcb7a6-8e0a-4db3-96a3-79da7577605b}, !- Name
  {27e99b2d-f8ad-4586-857e-aaac43962729}, !- Heating Setpoint Temperature Schedule Name
  {093ed9cd-c8c0-44ab-b886-c50148c20f1b}; !- Cooling Setpoint Temperature Schedule Name

OS:DesignSpecification:OutdoorAir,
  {2a8082b6-f679-493b-ba18-dca9250914c8}, !- Handle
  SZ DSOA Deli,                           !- Name
  ,                                       !- Outdoor Air Method
  ,                                       !- Outdoor Air Flow per Person {m3/s-person}
  0.0015,                                 !- Outdoor Air Flow per Floor Area {m3/s-m2}
  ,                                       !- Outdoor Air Flow Rate {m3/s}
  ,                                       !- Outdoor Air Flow Air Changes per Hour {1/hr}
  ;                                       !- Outdoor Air Flow Rate Fraction Schedule Name

OS:ConvergenceLimits,
  {2808f59c-1771-4735-8247-c03462e6e0f1}, !- Handle
  2,                                      !- Minimum System Timestep {minutes}
  25;                                     !- Maximum HVAC Iterations

OS:Space,
  {aef5a562-aab8-4110-af47-2a1392047f2c}, !- Handle
  Produce,                                !- Name
  {415f3460-e5e4-46da-b4bd-6c9626f02df0}, !- Space Type Name
  ,                                       !- Default Construction Set Name
  ,                                       !- Default Schedule Set Name
  0,                                      !- Direction of Relative North {deg}
  0,                                      !- X Origin {m}
  0,                                      !- Y Origin {m}
  0,                                      !- Z Origin {m}
  {52bfeaa9-dfb6-4dab-8068-63023c605278}, !- Building Story Name
  {781f96aa-2d11-4867-9b04-728943f52849}, !- Thermal Zone Name
  Yes,                                    !- Part of Total Floor Area
  {224d19f1-b678-4453-8d0b-2df1ba2ba9a9}; !- Design Specification Outdoor Air Object Name

OS:ThermostatSetpoint:DualSetpoint,
  {ca23f1ae-f635-49c9-9b0a-9a938c326995}, !- Handle
  {a043d0fe-9c98-49d2-a979-fc0b84791ca8}, !- Name
  {27e99b2d-f8ad-4586-857e-aaac43962729}, !- Heating Setpoint Temperature Schedule Name
  {093ed9cd-c8c0-44ab-b886-c50148c20f1b}; !- Cooling Setpoint Temperature Schedule Name

OS:Schedule:Compact,
  {7ca7a4cd-92a1-4dfe-aeba-c5cf15688bc7}, !- Handle
  Sales_Case:6_WALKINFREEZER_CaseDefrost2aDaySched, !- Name
  {96fb2da7-4e75-4735-a4fb-1194e576ddfc}, !- Schedule Type Limits Name
  Through: 12/31,                         !- Field 1
  For:AllDays,                            !- Field 2
  Interpolate:Yes,                        !- Field 3
  Until: 11:00,                           !- Field 4
  0,                                      !- Field 5
  Until: 11:20,                           !- Field 6
  1,                                      !- Field 7
  Until: 23:00,                           !- Field 8
  0,                                      !- Field 9
  Until: 23:20,                           !- Field 10
  1,                                      !- Field 11
  Until: 24:00,                           !- Field 12
  0;                                      !- Field 13

OS:Meter,
  {7a717727-70c1-4ce6-961b-d1427f685e9b}, !- Handle
  WaterSystems:Electricity,               !- Name
  hourly,                                 !- Reporting Frequency
  False,                                  !- Meter File Only
  False;                                  !- Cumulative

OS:Lights:Definition,
  {8890a176-b722-4a0b-a537-3144231b25e3}, !- Handle
  Deli_Lights Definition,                 !- Name
  Watts/Area,                             !- Design Level Calculation Method
  ,                                       !- Lighting Level {W}
  18.29,                                  !- Watts per Space Floor Area {W/m2}
  ,                                       !- Watts per Person {W/person}
  0.7,                                    !- Fraction Radiant
  0.2,                                    !- Fraction Visible
  0,                                      !- Return Air Fraction
  No;                                     !- Return Air Fraction Calculated from Plenum Temperature

OS:Lights,
  {4261e959-3e31-4133-8f25-02f1fd9b7710}, !- Handle
  Deli_Lights,                            !- Name
  {8890a176-b722-4a0b-a537-3144231b25e3}, !- Lights Definition Name
  {2d8fdf11-8b04-4c93-bee9-8165cdcfa522}, !- Space or SpaceType Name
  {a53ce665-762f-43a9-9ce3-3fbf55d140c0}, !- Schedule Name
  1,                                      !- Fraction Replaceable
  ,                                       !- Multiplier
  General;                                !- End-Use Subcategory

OS:Schedule:Compact,
  {a53ce665-762f-43a9-9ce3-3fbf55d140c0}, !- Handle
  BLDG_LIGHT_SCH,                         !- Name
  {79059134-3149-493e-bb1f-e4d219ab0fd1}, !- Schedule Type Limits Name
  Through: 12/31,                         !- Field 1
  For: Weekdays,                          !- Field 2
  Until: 06:00,                           !- Field 3
  0.05,                                   !- Field 4
  Until: 08:00,                           !- Field 5
  0.2,                                    !- Field 6
  Until: 09:00,                           !- Field 7
  0.5,                                    !- Field 8
  Until: 18:00,                           !- Field 9
  0.9,                                    !- Field 10
  Until: 20:00,                           !- Field 11
  0.6,                                    !- Field 12
  Until: 21:00,                           !- Field 13
  0.5,                                    !- Field 14
  Until: 22:00,                           !- Field 15
  0.2,                                    !- Field 16
  Until: 24:00,                           !- Field 17
  0.05,                                   !- Field 18
  For: Saturday,                          !- Field 19
  Until: 06:00,                           !- Field 20
  0.05,                                   !- Field 21
  Until: 08:00,                           !- Field 22
  0.1,                                    !- Field 23
  Until: 09:00,                           !- Field 24
  0.3,                                    !- Field 25
  Until: 10:00,                           !- Field 26
  0.6,                                    !- Field 27
  Until: 18:00,                           !- Field 28
  0.9,                                    !- Field 29
  Until: 19:00,                           !- Field 30
  0.5,                                    !- Field 31
  Until: 21:00,                           !- Field 32
  0.3,                                    !- Field 33
  Until: 22:00,                           !- Field 34
  0.1,                                    !- Field 35
  Until: 24:00,                           !- Field 36
  0.05,                                   !- Field 37
  For: SummerDesignDay,                   !- Field 38
  Until: 24:00,                           !- Field 39
  1.0,                                    !- Field 40
  For: WinterDesignDay,                   !- Field 41
  Until: 24:00,                           !- Field 42
  0.0,                                    !- Field 43
  For: Sunday Holidays AllOtherDays,      !- Field 44
  Until: 06:00,                           !- Field 45
  0.05,                                   !- Field 46
  Until: 10:00,                           !- Field 47
  0.1,                                    !- Field 48
  Until: 12:00,                           !- Field 49
  0.4,                                    !- Field 50
  Until: 17:00,                           !- Field 51
  0.6,                                    !- Field 52
  Until: 18:00,                           !- Field 53
  0.4,                                    !- Field 54
  Until: 22:00,                           !- Field 55
  0.2,                                    !- Field 56
  Until: 24:00,                           !- Field 57
  0.05;                                   !- Field 58

OS:Schedule:Compact,
  {5c039e6e-a9ba-4e9b-8703-7467b12c9ae7}, !- Handle
  Produce_Case:1_ MULTIDECKDIARYANDDELICASE_CaseCreditReduxSched, !- Name
  {79059134-3149-493e-bb1f-e4d219ab0fd1}, !- Schedule Type Limits Name
  Through: 12/31,                         !- Field 1
  For:AllDays,                            !- Field 2
  Interpolate:No,                         !- Field 3
  Until: 7:00,                            !- Field 4
  0.2,                                    !- Field 5
  Until: 21:00,                           !- Field 6
  0.6,                                    !- Field 7
  Until: 24:00,                           !- Field 8
  0.2;                                    !- Field 9

OS:Schedule:Compact,
  {5060e2a7-dbb8-41f5-be02-bf0a6ba0d1bb}, !- Handle
  Sales_Case:4_OPENWELLICECREAMDISPLAYCASE_CaseDripDown2aDaySched, !- Name
  {96fb2da7-4e75-4735-a4fb-1194e576ddfc}, !- Schedule Type Limits Name
  Through: 12/31,                         !- Field 1
  For:AllDays,                            !- Field 2
  Interpolate:Yes,                        !- Field 3
  Until: 11:00,                           !- Field 4
  0,                                      !- Field 5
  Until: 11:30,                           !- Field 6
  1,                                      !- Field 7
  Until: 23:00,                           !- Field 8
  0,                                      !- Field 9
  Until: 23:30,                           !- Field 10
  1,                                      !- Field 11
  Until: 24:00,                           !- Field 12
  0;                                      !- Field 13

OS:Schedule:Compact,
  {08615fbf-a172-4eb7-9424-c2a466a5a89e}, !- Handle
  Sales_Case:1_MEATDISPLAYCASE_CaseStockingSched, !- Name
  ,                                       !- Schedule Type Limits Name
  Through: 12/31,                         !- Field 1
  For:AllDays,                            !- Field 2
  Until: 13:00,                           !- Field 3
  0.0,                                    !- Field 4
  Until: 14:00,                           !- Field 5
  50.0,                                   !- Field 6
  Until: 15:00,                           !- Field 7
  35.0,                                   !- Field 8
  Until: 24:00,                           !- Field 9
  0.0;                                    !- Field 10

OS:ScheduleTypeLimits,
  {783e69ac-5b8b-46af-b7dc-1f5e59d83aa7}, !- Handle
  {ada67d50-fd32-45a7-a185-515ba23c5bab}; !- Name

OS:DesignSpecification:OutdoorAir,
  {224d19f1-b678-4453-8d0b-2df1ba2ba9a9}, !- Handle
  SZ DSOA Produce,                        !- Name
  ,                                       !- Outdoor Air Method
  ,                                       !- Outdoor Air Flow per Person {m3/s-person}
  0.0015,                                 !- Outdoor Air Flow per Floor Area {m3/s-m2}
  ,                                       !- Outdoor Air Flow Rate {m3/s}
  ,                                       !- Outdoor Air Flow Air Changes per Hour {1/hr}
  ;                                       !- Outdoor Air Flow Rate Fraction Schedule Name

OS:Schedule:Compact,
  {3522af07-6346-42af-9c11-ee86ecb6a075}, !- Handle
  Sales_Case:5_WALKINFREEZER_CaseDefrost2aDaySched, !- Name
  {96fb2da7-4e75-4735-a4fb-1194e576ddfc}, !- Schedule Type Limits Name
  Through: 12/31,                         !- Field 1
  For:AllDays,                            !- Field 2
  Interpolate:Yes,                        !- Field 3
  Until: 11:00,                           !- Field 4
  0,                                      !- Field 5
  Until: 11:20,                           !- Field 6
  1,                                      !- Field 7
  Until: 23:00,                           !- Field 8
  0,                                      !- Field 9
  Until: 23:20,                           !- Field 10
  1,                                      !- Field 11
  Until: 24:00,                           !- Field 12
  0;                                      !- Field 13

OS:Curve:Quadratic,
  {2c337219-ed5d-429f-a567-a6b483617abd}, !- Handle
  RACKA_RackCondFanCurve,                 !- Name
  0.3,                                    !- Coefficient1 Constant
  0.02,                                   !- Coefficient2 x
  0,                                      !- Coefficient3 x**2
  10,                                     !- Minimum Value of x {BasedOnField A2}
  35;                                     !- Maximum Value of x {BasedOnField A2}

OS:Surface,
  {fe009f52-8c20-4ea7-a9f3-e600130ce9bf}, !- Handle
  Deli_Ceiling,                           !- Name
  RoofCeiling,                            !- Surface Type
  {ae5afd85-1d9c-4e1c-82f3-c142018e5b76}, !- Construction Name
  {2d8fdf11-8b04-4c93-bee9-8165cdcfa522}, !- Space Name
  Outdoors,                               !- Outside Boundary Condition
  ,                                       !- Outside Boundary Condition Object
  SunExposed,                             !- Sun Exposure
  WindExposed,                            !- Wind Exposure
  ,                                       !- View Factor to Ground
  ,                                       !- Number of Vertices
  36.7863, -9.1251, 6.096,                !- X,Y,Z Vertex 1 {m}
  36.7863, 13.5765, 6.096,                !- X,Y,Z Vertex 2 {m}
  26.8875, 13.5765, 6.096,                !- X,Y,Z Vertex 3 {m}
  26.8875, -9.1251, 6.096;                !- X,Y,Z Vertex 4 {m}

OS:Construction,
  {ae5afd85-1d9c-4e1c-82f3-c142018e5b76}, !- Handle
  IEAD Non-res Roof,                      !- Name
  ,                                       !- Surface Rendering Name
  {1c951c08-e25d-4bbc-9cd3-8d27b21adcd0}, !- Layer 1
  {705150ca-5167-400b-8016-8ab55abd367b}, !- Layer 2
  {64a25e3d-c93b-4f19-a268-4e1e65b1c0a6}; !- Layer 3

OS:Material,
  {1c951c08-e25d-4bbc-9cd3-8d27b21adcd0}, !- Handle
  Roof Membrane,                          !- Name
  VeryRough,                              !- Roughness
  0.0095,                                 !- Thickness {m}
  0.16,                                   !- Conductivity {W/m-K}
  1121.29,                                !- Density {kg/m3}
  1460,                                   !- Specific Heat {J/kg-K}
  0.9,                                    !- Thermal Absorptance
  0.7,                                    !- Solar Absorptance
  0.7;                                    !- Visible Absorptance

OS:Material,
  {705150ca-5167-400b-8016-8ab55abd367b}, !- Handle
  IEAD NonRes Roof Insulation,            !- Name
  MediumRough,                            !- Roughness
  0.127338688569477,                      !- Thickness {m}
  0.049,                                  !- Conductivity {W/m-K}
  265,                                    !- Density {kg/m3}
  836.8,                                  !- Specific Heat {J/kg-K}
  0.9,                                    !- Thermal Absorptance
  0.7,                                    !- Solar Absorptance
  0.7;                                    !- Visible Absorptance

OS:Material,
  {64a25e3d-c93b-4f19-a268-4e1e65b1c0a6}, !- Handle
  Metal Decking,                          !- Name
  MediumSmooth,                           !- Roughness
  0.0015,                                 !- Thickness {m}
  45.006,                                 !- Conductivity {W/m-K}
  7680,                                   !- Density {kg/m3}
  418.4,                                  !- Specific Heat {J/kg-K}
  0.9,                                    !- Thermal Absorptance
  0.7,                                    !- Solar Absorptance
  0.3;                                    !- Visible Absorptance

OS:Surface,
  {77e46f0c-24c6-4ecb-a4de-56510410e76b}, !- Handle
  Sales_Wall_West,                        !- Name
  Wall,                                   !- Surface Type
  {ae42a8de-aa3c-4301-b980-7d525334b928}, !- Construction Name
  {242026a6-8599-42ac-8ce6-62495ccd4a58}, !- Space Name
  Surface,                                !- Outside Boundary Condition
  {94600864-f7b9-45f1-908b-3d4eb984fa05}, !- Outside Boundary Condition Object
  NoSun,                                  !- Sun Exposure
  NoWind,                                 !- Wind Exposure
  ,                                       !- View Factor to Ground
  ,                                       !- Number of Vertices
  -26.1698, 13.5765, 6.096,               !- X,Y,Z Vertex 1 {m}
  -26.1698, 13.5765, 0,                   !- X,Y,Z Vertex 2 {m}
  -26.1698, -30.2429, 0,                  !- X,Y,Z Vertex 3 {m}
  -26.1698, -30.2429, 6.096;              !- X,Y,Z Vertex 4 {m}

OS:Curve:Quadratic,
  {cb8c1c21-2893-43a0-bb56-c883bed1def9}, !- Handle
  RACKB_RackCOPfTCurve,                   !- Name
  1.7603,                                 !- Coefficient1 Constant
  -0.0377,                                !- Coefficient2 x
  0.0004,                                 !- Coefficient3 x**2
  10,                                     !- Minimum Value of x {BasedOnField A2}
  35;                                     !- Maximum Value of x {BasedOnField A2}

OS:InternalMass:Definition,
  {59f4efbc-05c1-4a8d-849c-027bdbdfda7c}, !- Handle
  Produce Internal Mass Definition,       !- Name
  {6d5ecd48-4a3b-4ca0-9cf2-586ebf05ad1a}, !- Construction Name
  SurfaceArea,                            !- Design Level Calculation Method