
OS:Version,
  {464ed1b0-32fa-494d-83c0-840084116f2a}, !- Handle
  1.8.5;                                  !- Version Identifier

OS:Site,
  {dfff3d37-a2e1-46bb-8345-5f994719244d}, !- Handle
  USA IL-CHICAGO-OHARE,                   !- Name
  41.77,                                  !- Latitude {deg}
  -87.75,                                 !- Longitude {deg}
  -6,                                     !- Time Zone {hr}
  190,                                    !- Elevation {m}
  City;                                   !- Terrain

OS:SimulationControl,
  {a8eeb340-4482-4d07-9e25-a812e85adb20}, !- Handle
  Yes,                                    !- Do Zone Sizing Calculation
  Yes,                                    !- Do System Sizing Calculation
  Yes,                                    !- Do Plant Sizing Calculation
  No,                                     !- Run Simulation for Sizing Periods
  Yes,                                    !- Run Simulation for Weather File Run Periods
  0.04,                                   !- Loads Convergence Tolerance Value
  0.2,                                    !- Temperature Convergence Tolerance Value {deltaC}
  FullInteriorAndExterior,                !- Solar Distribution
  25,                                     !- Maximum Number of Warmup Days
  6;                                      !- Minimum Number of Warmup Days

OS:Curve:Cubic,
  {723e3773-4a0d-474a-a34e-de6aa21cc0e3}, !- Handle
  Sales_Case:3_GLASSDOORFROZENFOODSingleShelfHorizontal_DefrostEnergyMult, !- Name
  0.020376,                               !- Coefficient1 Constant
  0.00024378,                             !- Coefficient2 x
  1.14e-005,                              !- Coefficient3 x**2
  1.811e-007,                             !- Coefficient4 x**3
  -35,                                    !- Minimum Value of x {BasedOnField A2}
  20;                                     !- Maximum Value of x {BasedOnField A2}

OS:InternalMass:Definition,
  {e917c716-3670-4f2b-b952-1577e280c86a}, !- Handle
  Deli Internal Mass Definition,          !- Name
  {b5f3cd7d-3f55-416b-bab7-87355ddb12db}, !- Construction Name
  SurfaceArea,                            !- Design Level Calculation Method
  449.4372,                               !- Surface Area {m2}
  ,                                       !- Surface Area per Space Floor Area {dimensionless}
  ;                                       !- Surface Area per Person {m2/person}

OS:Construction,
  {b5f3cd7d-3f55-416b-bab7-87355ddb12db}, !- Handle
  InteriorFurnishings,                    !- Name
  ,                                       !- Surface Rendering Name
  {5384fec6-c020-49dc-911d-9e8c96795257}; !- Layer 1

OS:Material,
  {5384fec6-c020-49dc-911d-9e8c96795257}, !- Handle
  Std Wood 6inch,                         !- Name
  MediumSmooth,                           !- Roughness
  0.15,                                   !- Thickness {m}
  0.12,                                   !- Conductivity {W/m-K}
  540,                                    !- Density {kg/m3}
  1210,                                   !- Specific Heat {J/kg-K}
  0.9,                                    !- Thermal Absorptance
  0.7,                                    !- Solar Absorptance
  0.7;                                    !- Visible Absorptance

OS:InternalMass,
  {2e5dcec7-008f-46aa-8823-6213ebb772e9}, !- Handle
  Deli Internal Mass,                     !- Name
  {e917c716-3670-4f2b-b952-1577e280c86a}, !- Internal Mass Definition Name
  {1fb914ab-60a9-421c-b4c4-e06cdd00dad2}; !- Space or SpaceType Name

OS:Space,
  {1fb914ab-60a9-421c-b4c4-e06cdd00dad2}, !- Handle
  Deli,                                   !- Name
  {5ad261a0-e553-4281-b332-4dab15849743}, !- Space Type Name
  ,                                       !- Default Construction Set Name
  ,                                       !- Default Schedule Set Name
  0,                                      !- Direction of Relative North {deg}
  0,                                      !- X Origin {m}
  0,                                      !- Y Origin {m}
  0,                                      !- Z Origin {m}
  {020ddc5c-dad3-45be-b208-c3538390c061}, !- Building Story Name
  {462066dd-6c2c-47d9-b487-a9f07b3d9b2b}, !- Thermal Zone Name
  Yes,                                    !- Part of Total Floor Area
  {f4c4a361-e50d-434e-b39e-c83463c190b5}; !- Design Specification Outdoor Air Object Name

OS:ThermostatSetpoint:DualSetpoint,
  {926e8b18-3fd5-45b4-b242-23b5a8dc51b8}, !- Handle
  {5d86a8ba-12eb-40a8-bcf1-c5b447f5fbce}, !- Name
  {dedb66f3-3af0-4770-a580-8a26d35b0312}, !- Heating Setpoint Temperature Schedule Name
  {d02bb505-9bdf-4869-9336-c78865b43ee4}; !- Cooling Setpoint Temperature Schedule Name

OS:Schedule:Compact,
  {dedb66f3-3af0-4770-a580-8a26d35b0312}, !- Handle
  HTGSETP_SCH,                            !- Name
  {0661f54c-89ad-49ee-b395-6cb32850bb55}, !- Schedule Type Limits Name
  Through: 12/31,                         !- Field 1
  For SummerDesignDay,                    !- Field 2
  Until: 24:00,                           !- Field 3
  15.6,                                   !- Field 4
  For: AllOtherDays,                      !- Field 5
  Until:  6:00,                           !- Field 6
  15.6,                                   !- Field 7
  Until: 22:00,                           !- Field 8
  21.,                                    !- Field 9
  Until: 24:00,                           !- Field 10
  15.6;                                   !- Field 11

OS:ScheduleTypeLimits,
  {0661f54c-89ad-49ee-b395-6cb32850bb55}, !- Handle
  Temperature,                            !- Name
  -60,                                    !- Lower Limit Value {BasedOnField A4}
  200,                                    !- Upper Limit Value {BasedOnField A4}
  CONTINUOUS,                             !- Numeric Type
  Temperature;                            !- Unit Type

OS:Schedule:Compact,
  {d02bb505-9bdf-4869-9336-c78865b43ee4}, !- Handle
  CLGSETP_SCH,                            !- Name
  {0661f54c-89ad-49ee-b395-6cb32850bb55}, !- Schedule Type Limits Name
  Through: 12/31,                         !- Field 1
  For WinterDesignDay,                    !- Field 2
  Until: 24:00,                           !- Field 3
  30.0,                                   !- Field 4
  For: AllOtherDays,                      !- Field 5
  Until: 6:00,                            !- Field 6
  30.0,                                   !- Field 7
  Until: 22:00,                           !- Field 8
  24.0,                                   !- Field 9
  Until: 24:00,                           !- Field 10
  30.0;                                   !- Field 11

OS:Construction,
  {92f6626a-bce2-44b7-b712-db6b0064be29}, !- Handle
  Mass Non-res Ext Wall,                  !- Name
  ,                                       !- Surface Rendering Name
  {e2aeb898-975b-4981-afcc-8f9e9b094b3f}, !- Layer 1
  {df43b870-2890-4ac4-bba0-ae15f09be89f}, !- Layer 2
  {b9bdf4ab-9fcf-4c2e-8d4d-6bda7d7e65b9}, !- Layer 3
  {624f0660-1686-4da8-884c-082d04967827}; !- Layer 4

OS:Material,
  {e2aeb898-975b-4981-afcc-8f9e9b094b3f}, !- Handle
  1IN Stucco,                             !- Name
  Smooth,                                 !- Roughness
  0.0253,                                 !- Thickness {m}
  0.6918,                                 !- Conductivity {W/m-K}
  1858,                                   !- Density {kg/m3}
  837,                                    !- Specific Heat {J/kg-K}
  0.9,                                    !- Thermal Absorptance
  0.92,                                   !- Solar Absorptance
  0.92;                                   !- Visible Absorptance

OS:Material,
  {df43b870-2890-4ac4-bba0-ae15f09be89f}, !- Handle
  8IN CONCRETE HW,                        !- Name
  Rough,                                  !- Roughness
  0.2032,                                 !- Thickness {m}
  1.311,                                  !- Conductivity {W/m-K}
  2240,                                   !- Density {kg/m3}
  836.8,                                  !- Specific Heat {J/kg-K}
  0.9,                                    !- Thermal Absorptance
  0.7,                                    !- Solar Absorptance
  0.7;                                    !- Visible Absorptance

OS:Material,
  {b9bdf4ab-9fcf-4c2e-8d4d-6bda7d7e65b9}, !- Handle
  Mass NonRes Wall Insulation,            !- Name
  MediumRough,                            !- Roughness
  0.0495494599433393,                     !- Thickness {m}
  0.049,                                  !- Conductivity {W/m-K}
  265,                                    !- Density {kg/m3}
  836.8,                                  !- Specific Heat {J/kg-K}
  0.9,                                    !- Thermal Absorptance
  0.7,                                    !- Solar Absorptance
  0.7;                                    !- Visible Absorptance

OS:Material,
  {624f0660-1686-4da8-884c-082d04967827}, !- Handle
  1/2IN Gypsum,                           !- Name
  Smooth,                                 !- Roughness
  0.0127,                                 !- Thickness {m}
  0.16,                                   !- Conductivity {W/m-K}
  784.9,                                  !- Density {kg/m3}
  830,                                    !- Specific Heat {J/kg-K}
  0.9,                                    !- Thermal Absorptance
  0.92,                                   !- Solar Absorptance
  0.92;                                   !- Visible Absorptance

OS:Schedule:Compact,
  {5206edd6-5da8-427e-b808-1b01524e769e}, !- Handle
  Sales_Case:5_WALKINFREEZER_CaseCreditReduxSched, !- Name
  {6d34d69d-0db0-494e-84af-f9bd575ecaed}, !- Schedule Type Limits Name
  Through: 12/31,                         !- Field 1
  For:AllDays,                            !- Field 2
  Interpolate:No,                         !- Field 3
  Until: 7:00,                            !- Field 4
  0.2,                                    !- Field 5
  Until: 21:00,                           !- Field 6
  0.4,                                    !- Field 7
  Until: 24:00,                           !- Field 8
  0.2;                                    !- Field 9

OS:ScheduleTypeLimits,
  {6d34d69d-0db0-494e-84af-f9bd575ecaed}, !- Handle
  Fraction,                               !- Name
  0,                                      !- Lower Limit Value {BasedOnField A4}
  1,                                      !- Upper Limit Value {BasedOnField A4}
  CONTINUOUS;                             !- Numeric Type

OS:ElectricEquipment:Definition,
  {9c2be185-a617-4e23-8781-953d4b5ee94e}, !- Handle
  Office_MiscPlug_Equip Definition,       !- Name
  Watts/Area,                             !- Design Level Calculation Method
  ,                                       !- Design Level {W}
  8.07,                                   !- Watts per Space Floor Area {W/m2}
  ,                                       !- Watts per Person {W/person}
  0,                                      !- Fraction Latent
  0.5,                                    !- Fraction Radiant
  0;                                      !- Fraction Lost

OS:ElectricEquipment,
  {061831c4-1a6d-480d-99b5-ad67ddae570e}, !- Handle
  Office_MiscPlug_Equip,                  !- Name
  {9c2be185-a617-4e23-8781-953d4b5ee94e}, !- Electric Equipment Definition Name
  {46b1729e-78ea-4c0e-81fa-302e24dad5ad}, !- Space or SpaceType Name
  {e3b9b959-a6fe-4277-97d6-b76c418c6165}, !- Schedule Name
  ,                                       !- Multiplier
  MiscPlug;                               !- End-Use Subcategory

OS:Space,
  {46b1729e-78ea-4c0e-81fa-302e24dad5ad}, !- Handle
  Office,                                 !- Name
  {b78a6816-df94-4434-8411-8f2826b9eb06}, !- Space Type Name
  ,                                       !- Default Construction Set Name
  ,                                       !- Default Schedule Set Name
  0,                                      !- Direction of Relative North {deg}
  0,                                      !- X Origin {m}
  0,                                      !- Y Origin {m}
  0,                                      !- Z Origin {m}
  {020ddc5c-dad3-45be-b208-c3538390c061}, !- Building Story Name
  {c3fa15ac-d9cf-4780-a7fe-7ff278d02783}, !- Thermal Zone Name
  Yes,                                    !- Part of Total Floor Area
  {0c439898-ca88-4f97-bf65-b6ca258e90b3}; !- Design Specification Outdoor Air Object Name

OS:ThermostatSetpoint:DualSetpoint,
  {764fa7b9-d1e0-4f93-8b6d-ba76a73bff75}, !- Handle
  {df4b0a5e-0c72-4482-822b-90dac0336a72}, !- Name
  {dedb66f3-3af0-4770-a580-8a26d35b0312}, !- Heating Setpoint Temperature Schedule Name
  {d02bb505-9bdf-4869-9336-c78865b43ee4}; !- Cooling Setpoint Temperature Schedule Name

OS:Schedule:Compact,
  {e3b9b959-a6fe-4277-97d6-b76c418c6165}, !- Handle
  BLDG_EQUIP_SCH,                         !- Name
  {6d34d69d-0db0-494e-84af-f9bd575ecaed}, !- Schedule Type Limits Name
  Through: 12/31,                         !- Field 1
  For: Weekdays,                          !- Field 2
  Until: 06:00,                           !- Field 3
  0.2,                                    !- Field 4
  Until: 08:00,                           !- Field 5
  0.4,                                    !- Field 6
  Until: 09:00,                           !- Field 7
  0.7,                                    !- Field 8
  Until: 18:00,                           !- Field 9
  0.9,                                    !- Field 10
  Until: 20:00,                           !- Field 11
  0.8,                                    !- Field 12
  Until: 21:00,                           !- Field 13
  0.7,                                    !- Field 14
  Until: 22:00,                           !- Field 15
  0.4,                                    !- Field 16
  Until: 24:00,                           !- Field 17
  0.2,                                    !- Field 18
  For: Saturday,                          !- Field 19
  Until: 06:00,                           !- Field 20
  0.15,                                   !- Field 21
  Until: 08:00,                           !- Field 22
  0.3,                                    !- Field 23
  Until: 09:00,                           !- Field 24
  0.5,                                    !- Field 25
  Until: 10:00,                           !- Field 26
  0.8,                                    !- Field 27
  Until: 18:00,                           !- Field 28
  0.9,                                    !- Field 29
  Until: 19:00,                           !- Field 30
  0.7,                                    !- Field 31
  Until: 21:00,                           !- Field 32
  0.5,                                    !- Field 33
  Until: 22:00,                           !- Field 34
  0.3,                                    !- Field 35
  Until: 24:00,                           !- Field 36
  0.15,                                   !- Field 37
  For: SummerDesignDay,                   !- Field 38
  Until: 24:00,                           !- Field 39
  1.0,                                    !- Field 40
  For: WinterDesignDay,                   !- Field 41
  Until: 24:00,                           !- Field 42
  0.0,                                    !- Field 43
  For: Sunday Holidays AllOtherDays,      !- Field 44
  Until: 06:00,                           !- Field 45
  0.15,                                   !- Field 46
  Until: 10:00,                           !- Field 47
  0.3,                                    !- Field 48
  Until: 12:00,                           !- Field 49
  0.6,                                    !- Field 50
  Until: 17:00,                           !- Field 51
  0.8,                                    !- Field 52
  Until: 18:00,                           !- Field 53
  0.6,                                    !- Field 54
  Until: 22:00,                           !- Field 55
  0.4,                                    !- Field 56
  Until: 24:00,                           !- Field 57
  0.15;                                   !- Field 58

OS:Curve:Quadratic,
  {b8fe2446-ae76-4ae4-aab3-023bd8223f00}, !- Handle
  RACKB_RackCOPfTCurve,                   !- Name
  1.7603,                                 !- Coefficient1 Constant
  -0.0377,                                !- Coefficient2 x
  0.0004,                                 !- Coefficient3 x**2
  10,                                     !- Minimum Value of x {BasedOnField A2}
  35;                                     !- Maximum Value of x {BasedOnField A2}

OS:Schedule:Compact,
  {32676b6d-3a3e-4040-9f5f-96410ebe7fde}, !- Handle
  Sales_Case:2_ MULTIDECKDIARYANDDELICASE_CaseDefrost2aDaySched, !- Name
  {4b14ca96-2108-42e6-8541-bc1905d1ab9d}, !- Schedule Type Limits Name
  Through: 12/31,                         !- Field 1
  For:AllDays,                            !- Field 2
  Interpolate:Yes,                        !- Field 3
  Until: 11:00,                           !- Field 4
  0,                                      !- Field 5
  Until: 11:20,                           !- Field 6
  1,                                      !- Field 7
  Until: 23:00,                           !- Field 8
  0,                                      !- Field 9
  Until: 23:20,                           !- Field 10
  1,                                      !- Field 11
  Until: 24:00,                           !- Field 12
  0;                                      !- Field 13

OS:ScheduleTypeLimits,
  {4b14ca96-2108-42e6-8541-bc1905d1ab9d}, !- Handle
  On/Off,                                 !- Name
  0,                                      !- Lower Limit Value {BasedOnField A4}
  1,                                      !- Upper Limit Value {BasedOnField A4}
  DISCRETE,                               !- Numeric Type
  Availability;                           !- Unit Type

OS:InternalMass:Definition,
  {3d564fe0-d803-408a-93c6-fc8f702c6279}, !- Handle
  DryStorage Internal Mass Definition,    !- Name
  {b5f3cd7d-3f55-416b-bab7-87355ddb12db}, !- Construction Name
  SurfaceArea,                            !- Design Level Calculation Method
  1243.7788,                              !- Surface Area {m2}
  ,                                       !- Surface Area per Space Floor Area {dimensionless}
  ;                                       !- Surface Area per Person {m2/person}

OS:InternalMass,
  {2f74c022-f2a5-4019-8a93-c7382b03f85f}, !- Handle
  DryStorage Internal Mass,               !- Name
  {3d564fe0-d803-408a-93c6-fc8f702c6279}, !- Internal Mass Definition Name
  {6f6b75d8-360e-4ccb-b2be-2e631dd41db3}; !- Space or SpaceType Name

OS:Space,
  {6f6b75d8-360e-4ccb-b2be-2e631dd41db3}, !- Handle
  DryStorage,                             !- Name
  {c88a0ec7-dc1b-4134-924f-d730d3f63be7}, !- Space Type Name
  ,                                       !- Default Construction Set Name
  ,                                       !- Default Schedule Set Name
  0,                                      !- Direction of Relative North {deg}
  0,                                      !- X Origin {m}
  0,                                      !- Y Origin {m}
  0,                                      !- Z Origin {m}
  {020ddc5c-dad3-45be-b208-c3538390c061}, !- Building Story Name
  {9ea6d0af-ae06-4f45-a608-a4ea010f423f}, !- Thermal Zone Name
  Yes,                                    !- Part of Total Floor Area
  {18553229-712d-4838-a2cf-8e8211102484}; !- Design Specification Outdoor Air Object Name

OS:ThermostatSetpoint:DualSetpoint,
  {dee19b2f-2ed1-43ef-8a74-2116845c7223}, !- Handle
  {11c83771-d341-4872-b6bb-d189e33d0691}, !- Name
  {dedb66f3-3af0-4770-a580-8a26d35b0312}, !- Heating Setpoint Temperature Schedule Name
  {d02bb505-9bdf-4869-9336-c78865b43ee4}; !- Cooling Setpoint Temperature Schedule Name

OS:Material:NoMass,
  {c4279d34-2ef7-4a30-9a90-4ff2bb81928e}, !- Handle
  CP02 CARPET PAD,                        !- Name
  VeryRough,                              !- Roughness
  0.2165,                                 !- Thermal Resistance {m2-K/W}
  0.9,                                    !- Thermal Absorptance
  0.7,                                    !- Solar Absorptance
  0.8;                                    !- Visible Absorptance

OS:Curve:Quadratic,
  {6d422fac-5994-4bff-ba6c-5571ffcb1e53}, !- Handle
  RACKC_RackCOPfTCurve,                   !- Name
  1.7603,                                 !- Coefficient1 Constant
  -0.0377,                                !- Coefficient2 x
  0.0004,                                 !- Coefficient3 x**2
  10,                                     !- Minimum Value of x {BasedOnField A2}
  35;                                     !- Maximum Value of x {BasedOnField A2}

OS:People:Definition,
  {449a4768-3d2d-4e45-989b-975a2e1e866a}, !- Handle
  Sales People Definition,                !- Name
  Area/Person,                            !- Number of People Calculation Method
  ,                                       !- Number of People {people}
  ,                                       !- People per Space Floor Area {person/m2}
  11.61,                                  !- Space Floor Area per Person {m2/person}
  0.3,                                    !- Fraction Radiant
  ,                                       !- Sensible Heat Fraction
  ,                                       !- Carbon Dioxide Generation Rate {m3/s-W}
  No,                                     !- Enable ASHRAE 55 Comfort Warnings
  ZoneAveraged;                           !- Mean Radiant Temperature Calculation Type

OS:People,
  {3132d72e-58b7-4f86-a73c-4278ebb97f94}, !- Handle
  Sales People,                           !- Name
  {449a4768-3d2d-4e45-989b-975a2e1e866a}, !- People Definition Name
  {77710412-fe13-4c50-b14e-7f1c1ea73811}, !- Space or SpaceType Name
  {2c13f471-1c7e-4ad5-b360-02885f1e8769}, !- Number of People Schedule Name
  {c443e5c1-4877-4c5a-82fe-755cc87d8cf4}, !- Activity Level Schedule Name
  ,                                       !- Surface Name/Angle Factor List Name
  {f062386e-2cc0-4cf4-a7e5-35cee8a7e778}; !- Work Efficiency Schedule Name

OS:Space,
  {77710412-fe13-4c50-b14e-7f1c1ea73811}, !- Handle
  Sales,                                  !- Name
  {5ad261a0-e553-4281-b332-4dab15849743}, !- Space Type Name
  ,                                       !- Default Construction Set Name
  ,                                       !- Default Schedule Set Name
  0,                                      !- Direction of Relative North {deg}
  0,                                      !- X Origin {m}
  0,                                      !- Y Origin {m}
  0,                                      !- Z Origin {m}
  {020ddc5c-dad3-45be-b208-c3538390c061}, !- Building Story Name
  {d6479d6b-e57f-4f01-9a33-9120c89081f0}, !- Thermal Zone Name
  Yes,                                    !- Part of Total Floor Area
  {a464d00a-7643-4d58-b16e-0a3c5d77057c}; !- Design Specification Outdoor Air Object Name

OS:ThermostatSetpoint:DualSetpoint,
  {bcf7ef30-6dc8-4d03-ad31-64799fcc9109}, !- Handle
  {2b9afa5c-b05b-4b74-bb15-89823ef35059}, !- Name
  {dedb66f3-3af0-4770-a580-8a26d35b0312}, !- Heating Setpoint Temperature Schedule Name
  {d02bb505-9bdf-4869-9336-c78865b43ee4}; !- Cooling Setpoint Temperature Schedule Name

OS:Schedule:Compact,
  {2c13f471-1c7e-4ad5-b360-02885f1e8769}, !- Handle
  BLDG_OCC_SCH,                           !- Name
  {6d34d69d-0db0-494e-84af-f9bd575ecaed}, !- Schedule Type Limits Name
  Through: 12/31,                         !- Field 1
  For: Weekdays,                          !- Field 2
  Until: 06:00,                           !- Field 3
  0.0,                                    !- Field 4
  Until: 08:00,                           !- Field 5
  0.1,                                    !- Field 6
  Until: 09:00,                           !- Field 7
  0.2,                                    !- Field 8
  Until: 11:00,                           !- Field 9
  0.5,                                    !- Field 10
  Until: 15:00,                           !- Field 11
  0.7,                                    !- Field 12
  Until: 16:00,                           !- Field 13
  0.8,                                    !- Field 14
  Until: 17:00,                           !- Field 15
  0.7,                                    !- Field 16
  Until: 19:00,                           !- Field 17
  0.5,                                    !- Field 18
  Until: 22:00,                           !- Field 19
  0.3,                                    !- Field 20
  Until: 24:00,                           !- Field 21
  0.0,                                    !- Field 22
  For: SummerDesignDay,                   !- Field 23
  Until: 24:00,                           !- Field 24
  1.0,                                    !- Field 25
  For: Saturday,                          !- Field 26
  Until: 06:00,                           !- Field 27
  0.0,                                    !- Field 28
  Until: 08:00,                           !- Field 29
  0.1,                                    !- Field 30
  Until: 09:00,                           !- Field 31
  0.2,                                    !- Field 32
  Until: 10:00,                           !- Field 33
  0.5,                                    !- Field 34
  Until: 11:00,                           !- Field 35
  0.6,                                    !- Field 36
  Until: 17:00,                           !- Field 37
  0.8,                                    !- Field 38
  Until: 18:00,                           !- Field 39
  0.6,                                    !- Field 40
  Until: 21:00,                           !- Field 41
  0.2,                                    !- Field 42
  Until: 22:00,                           !- Field 43
  0.1,                                    !- Field 44
  Until: 24:00,                           !- Field 45
  0.0,                                    !- Field 46
  For: WinterDesignDay,                   !- Field 47
  Until: 24:00,                           !- Field 48
  0.0,                                    !- Field 49
  For: Sunday Holidays AllOtherDays,      !- Field 50
  Until: 06:00,                           !- Field 51
  0.0,                                    !- Field 52
  Until: 10:00,                           !- Field 53
  0.1,                                    !- Field 54
  Until: 12:00,                           !- Field 55
  0.2,                                    !- Field 56
  Until: 17:00,                           !- Field 57
  0.4,                                    !- Field 58
  Until: 18:00,                           !- Field 59
  0.2,                                    !- Field 60
  Until: 22:00,                           !- Field 61
  0.1,                                    !- Field 62
  Until: 24:00,                           !- Field 63
  0.0;                                    !- Field 64

OS:Schedule:Compact,
  {c443e5c1-4877-4c5a-82fe-755cc87d8cf4}, !- Handle
  ACTIVITY_SCH,                           !- Name
  {3f311c49-f3f0-48f5-a47c-3aa75e9a0b97}, !- Schedule Type Limits Name
  Through: 12/31,                         !- Field 1
  For: AllDays,                           !- Field 2
  Until: 24:00,                           !- Field 3
  120.;                                   !- Field 4

OS:ScheduleTypeLimits,
  {6c19ab70-99b9-4647-9cdb-c050cb1ffb3f}, !- Handle
  {008f2ddc-e029-42a0-b742-0076b8315e50}; !- Name

OS:ScheduleTypeLimits,
  {3f311c49-f3f0-48f5-a47c-3aa75e9a0b97}, !- Handle
  ActivityLevel,                          !- Name
  0,                                      !- Lower Limit Value {BasedOnField A4}
  ,                                       !- Upper Limit Value {BasedOnField A4}
  Continuous,                             !- Numeric Type
  ActivityLevel;                          !- Unit Type

OS:Schedule:Compact,
  {f062386e-2cc0-4cf4-a7e5-35cee8a7e778}, !- Handle
  WORK_EFF_SCH,                           !- Name
  {6d34d69d-0db0-494e-84af-f9bd575ecaed}, !- Schedule Type Limits Name
  Through: 12/31,                         !- Field 1
  For: AllDays,                           !- Field 2
  Until: 24:00,                           !- Field 3
  0.0;                                    !- Field 4

OS:Schedule:Compact,
  {9d7e2f11-1071-4c65-b75b-6eab5726e2a1}, !- Handle
  Sales_Case:4_OPENWELLICECREAMDISPLAYCASE_CaseDripDown2aDaySched, !- Name
  {4b14ca96-2108-42e6-8541-bc1905d1ab9d}, !- Schedule Type Limits Name
  Through: 12/31,                         !- Field 1
  For:AllDays,                            !- Field 2
  Interpolate:Yes,                        !- Field 3
  Until: 11:00,                           !- Field 4
  0,                                      !- Field 5
  Until: 11:30,                           !- Field 6
  1,                                      !- Field 7
  Until: 23:00,                           !- Field 8
  0,                                      !- Field 9
  Until: 23:30,                           !- Field 10
  1,                                      !- Field 11
  Until: 24:00,                           !- Field 12
  0;                                      !- Field 13

OS:Schedule:Compact,
  {290743e1-aada-457a-943f-ce76bde5fd6e}, !- Handle
  HVACOperationSchd,                      !- Name
  {4b14ca96-2108-42e6-8541-bc1905d1ab9d}, !- Schedule Type Limits Name
  Through: 12/31,                         !- Field 1
  For: AllDays,                           !- Field 2
  Until: 06:00,                           !- Field 3
  0.0,                                    !- Field 4
  Until: 22:00,                           !- Field 5
  1.0,                                    !- Field 6
  Until: 24:00,                           !- Field 7
  0.0;                                    !- Field 8

OS:Material,
  {1d701bd8-9db6-4010-b400-55b4018d8e14}, !- Handle