
OS:Version,
  {242adabf-27e3-47c9-8cbe-ee90cc824d01}, !- Handle
  1.8.5;                                  !- Version Identifier

OS:Site,
  {d724917c-32da-49cf-8f47-380cdd5af4ee}, !- Handle
  USA IL-CHICAGO-OHARE,                   !- Name
  41.77,                                  !- Latitude {deg}
  -87.75,                                 !- Longitude {deg}
  -6,                                     !- Time Zone {hr}
  190,                                    !- Elevation {m}
  City;                                   !- Terrain

OS:SimulationControl,
  {2cad1d90-74ae-4ea7-8d3d-c5ec5d02f53f}, !- Handle
  Yes,                                    !- Do Zone Sizing Calculation
  Yes,                                    !- Do System Sizing Calculation
  Yes,                                    !- Do Plant Sizing Calculation
  No,                                     !- Run Simulation for Sizing Periods
  Yes,                                    !- Run Simulation for Weather File Run Periods
  0.04,                                   !- Loads Convergence Tolerance Value
  0.2,                                    !- Temperature Convergence Tolerance Value {deltaC}
  FullInteriorAndExterior,                !- Solar Distribution
  25,                                     !- Maximum Number of Warmup Days
  6;                                      !- Minimum Number of Warmup Days

OS:Schedule:Compact,
  {71dda03b-2a27-4a32-a54b-59e0253ec09d}, !- Handle
  Sales_Case:7_WALKINFREEZER_CaseDefrost2aDaySched, !- Name
  {d6133fd1-7d27-4227-835d-e27152f14b9b}, !- Schedule Type Limits Name
  Through: 12/31,                         !- Field 1
  For:AllDays,                            !- Field 2
  Interpolate:Yes,                        !- Field 3
  Until: 11:00,                           !- Field 4
  0,                                      !- Field 5
  Until: 11:20,                           !- Field 6
  1,                                      !- Field 7
  Until: 23:00,                           !- Field 8
  0,                                      !- Field 9
  Until: 23:20,                           !- Field 10
  1,                                      !- Field 11
  Until: 24:00,                           !- Field 12
  0;                                      !- Field 13

OS:ScheduleTypeLimits,
  {d6133fd1-7d27-4227-835d-e27152f14b9b}, !- Handle
  On/Off,                                 !- Name
  0,                                      !- Lower Limit Value {BasedOnField A4}
  1,                                      !- Upper Limit Value {BasedOnField A4}
  DISCRETE,                               !- Numeric Type
  Availability;                           !- Unit Type

OS:Material,
  {8d380461-133a-46dc-8a32-29426e1a6570}, !- Handle
  Metal Roofing,                          !- Name
  MediumSmooth,                           !- Roughness
  0.0015,                                 !- Thickness {m}
  45.006,                                 !- Conductivity {W/m-K}
  7680,                                   !- Density {kg/m3}
  418.4,                                  !- Specific Heat {J/kg-K}
  0.9,                                    !- Thermal Absorptance
  0.7,                                    !- Solar Absorptance
  0.3;                                    !- Visible Absorptance

OS:Surface,
  {1a518766-513a-4f65-9860-4b3c14750266}, !- Handle
  Sales_Ceiling,                          !- Name
  RoofCeiling,                            !- Surface Type
  {813c3691-5026-4b6f-8041-c3dad3f73ab3}, !- Construction Name
  {99ea8b66-6bd7-48be-8d0f-56e359a45169}, !- Space Name
  Outdoors,                               !- Outside Boundary Condition
  ,                                       !- Outside Boundary Condition Object
  SunExposed,                             !- Sun Exposure
  WindExposed,                            !- Wind Exposure
  ,                                       !- View Factor to Ground
  ,                                       !- Number of Vertices
  26.8875, -30.2429, 6.096,               !- X,Y,Z Vertex 1 {m}
  26.8875, 13.5765, 6.096,                !- X,Y,Z Vertex 2 {m}
  -26.1698, 13.5765, 6.096,               !- X,Y,Z Vertex 3 {m}
  -26.1698, -30.2429, 6.096;              !- X,Y,Z Vertex 4 {m}

OS:Construction,
  {813c3691-5026-4b6f-8041-c3dad3f73ab3}, !- Handle
  IEAD Non-res Roof,                      !- Name
  ,                                       !- Surface Rendering Name
  {7790f854-f93f-4dbf-a0bf-f9cbf5c10438}, !- Layer 1
  {0024b4d6-8223-418a-bae8-b73aeec84356}, !- Layer 2
  {6026e673-dd15-4b28-a893-902dd7f34d23}; !- Layer 3

OS:Material,
  {7790f854-f93f-4dbf-a0bf-f9cbf5c10438}, !- Handle
  Roof Membrane,                          !- Name
  VeryRough,                              !- Roughness
  0.0095,                                 !- Thickness {m}
  0.16,                                   !- Conductivity {W/m-K}
  1121.29,                                !- Density {kg/m3}
  1460,                                   !- Specific Heat {J/kg-K}
  0.9,                                    !- Thermal Absorptance
  0.7,                                    !- Solar Absorptance
  0.7;                                    !- Visible Absorptance

OS:Material,
  {0024b4d6-8223-418a-bae8-b73aeec84356}, !- Handle
  IEAD NonRes Roof Insulation,            !- Name
  MediumRough,                            !- Roughness
  0.127338688569477,                      !- Thickness {m}
  0.049,                                  !- Conductivity {W/m-K}
  265,                                    !- Density {kg/m3}
  836.8,                                  !- Specific Heat {J/kg-K}
  0.9,                                    !- Thermal Absorptance
  0.7,                                    !- Solar Absorptance
  0.7;                                    !- Visible Absorptance

OS:Material,
  {6026e673-dd15-4b28-a893-902dd7f34d23}, !- Handle
  Metal Decking,                          !- Name
  MediumSmooth,                           !- Roughness
  0.0015,                                 !- Thickness {m}
  45.006,                                 !- Conductivity {W/m-K}
  7680,                                   !- Density {kg/m3}
  418.4,                                  !- Specific Heat {J/kg-K}
  0.9,                                    !- Thermal Absorptance
  0.7,                                    !- Solar Absorptance
  0.3;                                    !- Visible Absorptance

OS:Space,
  {99ea8b66-6bd7-48be-8d0f-56e359a45169}, !- Handle
  Sales,                                  !- Name
  {716aca52-1de6-4084-a95b-be6121c2e2d2}, !- Space Type Name
  ,                                       !- Default Construction Set Name
  ,                                       !- Default Schedule Set Name
  0,                                      !- Direction of Relative North {deg}
  0,                                      !- X Origin {m}
  0,                                      !- Y Origin {m}
  0,                                      !- Z Origin {m}
  {64b615c9-b3c7-4cb9-9c54-7254d0834d37}, !- Building Story Name
  {b1cc1ca4-9858-4b53-a0a1-b8f6abaadf4e}, !- Thermal Zone Name
  Yes,                                    !- Part of Total Floor Area
  {c3acb589-063d-4916-bb1d-3745bdd917b3}; !- Design Specification Outdoor Air Object Name

OS:ThermostatSetpoint:DualSetpoint,
  {c8038bef-aaa9-4a76-b952-78f331111764}, !- Handle
  {04eaa2dd-3478-4cae-99d5-09d66561d57a}, !- Name
  {ee562905-d07b-4f74-9ef4-16058046c863}, !- Heating Setpoint Temperature Schedule Name
  {65ed0d58-21e3-44aa-963f-05d1970d72ed}; !- Cooling Setpoint Temperature Schedule Name

OS:Schedule:Compact,
  {ee562905-d07b-4f74-9ef4-16058046c863}, !- Handle
  HTGSETP_SCH,                            !- Name
  {93ad8d6d-a6a7-4b34-a522-4dbd69d3cd6a}, !- Schedule Type Limits Name
  Through: 12/31,                         !- Field 1
  For SummerDesignDay,                    !- Field 2
  Until: 24:00,                           !- Field 3
  15.6,                                   !- Field 4
  For: AllOtherDays,                      !- Field 5
  Until:  6:00,                           !- Field 6
  15.6,                                   !- Field 7
  Until: 22:00,                           !- Field 8
  21.,                                    !- Field 9
  Until: 24:00,                           !- Field 10
  15.6;                                   !- Field 11

OS:ScheduleTypeLimits,
  {93ad8d6d-a6a7-4b34-a522-4dbd69d3cd6a}, !- Handle
  Temperature,                            !- Name
  -60,                                    !- Lower Limit Value {BasedOnField A4}
  200,                                    !- Upper Limit Value {BasedOnField A4}
  CONTINUOUS,                             !- Numeric Type
  Temperature;                            !- Unit Type

OS:Schedule:Compact,
  {65ed0d58-21e3-44aa-963f-05d1970d72ed}, !- Handle
  CLGSETP_SCH,                            !- Name
  {93ad8d6d-a6a7-4b34-a522-4dbd69d3cd6a}, !- Schedule Type Limits Name
  Through: 12/31,                         !- Field 1
  For WinterDesignDay,                    !- Field 2
  Until: 24:00,                           !- Field 3
  30.0,                                   !- Field 4
  For: AllOtherDays,                      !- Field 5
  Until: 6:00,                            !- Field 6
  30.0,                                   !- Field 7
  Until: 22:00,                           !- Field 8
  24.0,                                   !- Field 9
  Until: 24:00,                           !- Field 10
  30.0;                                   !- Field 11

OS:Material,
  {1c8bae07-c639-4a0b-97a7-469a0b392d23}, !- Handle
  8IN CONCRETE HW,                        !- Name
  Rough,                                  !- Roughness
  0.2032,                                 !- Thickness {m}
  1.311,                                  !- Conductivity {W/m-K}
  2240,                                   !- Density {kg/m3}
  836.8,                                  !- Specific Heat {J/kg-K}
  0.9,                                    !- Thermal Absorptance
  0.7,                                    !- Solar Absorptance
  0.7;                                    !- Visible Absorptance

OS:Material:NoMass,
  {44371495-dbd4-4eb8-b70d-4d0d0198a68d}, !- Handle
  CP02 CARPET PAD,                        !- Name
  VeryRough,                              !- Roughness
  0.2165,                                 !- Thermal Resistance {m2-K/W}
  0.9,                                    !- Thermal Absorptance
  0.7,                                    !- Solar Absorptance
  0.8;                                    !- Visible Absorptance

OS:People:Definition,
  {7c1fa411-b8af-4679-9210-a484c2b0c0ba}, !- Handle
  DryStorage People Definition,           !- Name
  Area/Person,                            !- Number of People Calculation Method
  ,                                       !- Number of People {people}
  ,                                       !- People per Space Floor Area {person/m2}
  27.87,                                  !- Space Floor Area per Person {m2/person}
  0.3,                                    !- Fraction Radiant
  ,                                       !- Sensible Heat Fraction
  ,                                       !- Carbon Dioxide Generation Rate {m3/s-W}
  No,                                     !- Enable ASHRAE 55 Comfort Warnings
  ZoneAveraged;                           !- Mean Radiant Temperature Calculation Type

OS:People,
  {d741cb6e-8a6d-430e-8ff6-691057b2ea91}, !- Handle
  DryStorage People,                      !- Name
  {7c1fa411-b8af-4679-9210-a484c2b0c0ba}, !- People Definition Name
  {c04ac836-433f-4883-bb40-bea73211829d}, !- Space or SpaceType Name
  {f8153a1a-e334-4d54-8c07-4c73b5f4349e}, !- Number of People Schedule Name
  {39f7d690-f430-4250-bf3c-be4b66192d1b}, !- Activity Level Schedule Name
  ,                                       !- Surface Name/Angle Factor List Name
  {df6158e9-8c60-492d-911d-056f0f15ca47}; !- Work Efficiency Schedule Name

OS:Space,
  {c04ac836-433f-4883-bb40-bea73211829d}, !- Handle
  DryStorage,                             !- Name
  {38d40f1f-2d87-4a4c-8f9f-3ca01b0bbda0}, !- Space Type Name
  ,                                       !- Default Construction Set Name
  ,                                       !- Default Schedule Set Name
  0,                                      !- Direction of Relative North {deg}
  0,                                      !- X Origin {m}
  0,                                      !- Y Origin {m}
  0,                                      !- Z Origin {m}
  {64b615c9-b3c7-4cb9-9c54-7254d0834d37}, !- Building Story Name
  {dfe83c5a-77b3-426d-b93b-73fb164d9253}, !- Thermal Zone Name
  Yes,                                    !- Part of Total Floor Area
  {cd1ed810-c0b5-4e50-8528-c8c1c061822c}; !- Design Specification Outdoor Air Object Name

OS:ThermostatSetpoint:DualSetpoint,
  {0ca3daed-a769-446c-97f3-ac49a0d39d3a}, !- Handle
  {d24517ab-5350-492b-a002-4d01fe3d3861}, !- Name
  {ee562905-d07b-4f74-9ef4-16058046c863}, !- Heating Setpoint Temperature Schedule Name
  {65ed0d58-21e3-44aa-963f-05d1970d72ed}; !- Cooling Setpoint Temperature Schedule Name

OS:Schedule:Compact,
  {f8153a1a-e334-4d54-8c07-4c73b5f4349e}, !- Handle
  BLDG_OCC_SCH,                           !- Name
  {1bd44958-b52e-482b-830f-7a628223b1d1}, !- Schedule Type Limits Name
  Through: 12/31,                         !- Field 1
  For: Weekdays,                          !- Field 2
  Until: 06:00,                           !- Field 3
  0.0,                                    !- Field 4
  Until: 08:00,                           !- Field 5
  0.1,                                    !- Field 6
  Until: 09:00,                           !- Field 7
  0.2,                                    !- Field 8
  Until: 11:00,                           !- Field 9
  0.5,                                    !- Field 10
  Until: 15:00,                           !- Field 11
  0.7,                                    !- Field 12
  Until: 16:00,                           !- Field 13
  0.8,                                    !- Field 14
  Until: 17:00,                           !- Field 15
  0.7,                                    !- Field 16
  Until: 19:00,                           !- Field 17
  0.5,                                    !- Field 18
  Until: 22:00,                           !- Field 19
  0.3,                                    !- Field 20
  Until: 24:00,                           !- Field 21
  0.0,                                    !- Field 22
  For: SummerDesignDay,                   !- Field 23
  Until: 24:00,                           !- Field 24
  1.0,                                    !- Field 25
  For: Saturday,                          !- Field 26
  Until: 06:00,                           !- Field 27
  0.0,                                    !- Field 28
  Until: 08:00,                           !- Field 29
  0.1,                                    !- Field 30
  Until: 09:00,                           !- Field 31
  0.2,                                    !- Field 32
  Until: 10:00,                           !- Field 33
  0.5,                                    !- Field 34
  Until: 11:00,                           !- Field 35
  0.6,                                    !- Field 36
  Until: 17:00,                           !- Field 37
  0.8,                                    !- Field 38
  Until: 18:00,                           !- Field 39
  0.6,                                    !- Field 40
  Until: 21:00,                           !- Field 41
  0.2,                                    !- Field 42
  Until: 22:00,                           !- Field 43
  0.1,                                    !- Field 44
  Until: 24:00,                           !- Field 45
  0.0,                                    !- Field 46
  For: WinterDesignDay,                   !- Field 47
  Until: 24:00,                           !- Field 48
  0.0,                                    !- Field 49
  For: Sunday Holidays AllOtherDays,      !- Field 50
  Until: 06:00,                           !- Field 51
  0.0,                                    !- Field 52
  Until: 10:00,                           !- Field 53
  0.1,                                    !- Field 54
  Until: 12:00,                           !- Field 55
  0.2,                                    !- Field 56
  Until: 17:00,                           !- Field 57
  0.4,                                    !- Field 58
  Until: 18:00,                           !- Field 59
  0.2,                                    !- Field 60
  Until: 22:00,                           !- Field 61
  0.1,                                    !- Field 62
  Until: 24:00,                           !- Field 63
  0.0;                                    !- Field 64

OS:ScheduleTypeLimits,
  {1bd44958-b52e-482b-830f-7a628223b1d1}, !- Handle
  Fraction,                               !- Name
  0,                                      !- Lower Limit Value {BasedOnField A4}
  1,                                      !- Upper Limit Value {BasedOnField A4}
  CONTINUOUS;                             !- Numeric Type

OS:Schedule:Compact,
  {39f7d690-f430-4250-bf3c-be4b66192d1b}, !- Handle
  ACTIVITY_SCH,                           !- Name
  {fac24aa4-9c67-4fda-8ba8-104a838c8f5f}, !- Schedule Type Limits Name
  Through: 12/31,                         !- Field 1
  For: AllDays,                           !- Field 2
  Until: 24:00,                           !- Field 3
  120.;                                   !- Field 4

OS:ScheduleTypeLimits,
  {596e92e0-dcde-4dc4-be40-881bb7031969}, !- Handle
  {4a5f85a1-fdf7-48d0-ab4f-56b97d50a880}; !- Name

OS:ScheduleTypeLimits,
  {fac24aa4-9c67-4fda-8ba8-104a838c8f5f}, !- Handle
  ActivityLevel,                          !- Name
  0,                                      !- Lower Limit Value {BasedOnField A4}
  ,                                       !- Upper Limit Value {BasedOnField A4}
  Continuous,                             !- Numeric Type
  ActivityLevel;                          !- Unit Type

OS:Schedule:Compact,
  {df6158e9-8c60-492d-911d-056f0f15ca47}, !- Handle
  WORK_EFF_SCH,                           !- Name
  {1bd44958-b52e-482b-830f-7a628223b1d1}, !- Schedule Type Limits Name
  Through: 12/31,                         !- Field 1
  For: AllDays,                           !- Field 2
  Until: 24:00,                           !- Field 3
  0.0;                                    !- Field 4

OS:Schedule:Compact,
  {ff7aee5d-39d8-47a9-845f-9bd9779ef177}, !- Handle
  INFIL_HALF_ON_SCH,                      !- Name
  {1bd44958-b52e-482b-830f-7a628223b1d1}, !- Schedule Type Limits Name
  Through: 12/31,                         !- Field 1
  For: Weekdays SummerDesignDay,          !- Field 2
  Until: 06:00,                           !- Field 3
  1.0,                                    !- Field 4
  Until: 22:00,                           !- Field 5
  0.5,                                    !- Field 6
  Until: 24:00,                           !- Field 7
  1.0,                                    !- Field 8
  For: Saturday,                          !- Field 9
  Until: 06:00,                           !- Field 10
  1.0,                                    !- Field 11
  Until: 22:00,                           !- Field 12
  0.5,                                    !- Field 13
  Until: 24:00,                           !- Field 14
  1.0,                                    !- Field 15
  For: WinterDesignDay,                   !- Field 16
  Until: 24:00,                           !- Field 17
  1.0,                                    !- Field 18
  For: Sunday Holidays AllOtherDays,      !- Field 19
  Until: 08:00,                           !- Field 20
  1.0,                                    !- Field 21
  Until: 17:00,                           !- Field 22
  0.5,                                    !- Field 23
  Until: 24:00,                           !- Field 24
  1.0;                                    !- Field 25

OS:ScheduleTypeLimits,
  {7e71f2b2-c0e5-4d2b-bab9-f2a74d19e24c}, !- Handle
  Control Type,                           !- Name
  0,                                      !- Lower Limit Value {BasedOnField A4}
  4,                                      !- Upper Limit Value {BasedOnField A4}
  DISCRETE,                               !- Numeric Type
  ControlMode;                            !- Unit Type

OS:Surface,
  {a8b1279c-a904-404f-978f-e3ea50347b31}, !- Handle
  Office_Floor,                           !- Name
  Floor,                                  !- Surface Type
  {594c00cc-b0d5-4017-b58b-448109d3b347}, !- Construction Name
  {f414da93-dfad-451a-bd09-5829a60c8792}, !- Space Name
  Ground,                                 !- Outside Boundary Condition
  ,                                       !- Outside Boundary Condition Object
  NoSun,                                  !- Sun Exposure
  NoWind,                                 !- Wind Exposure
  ,                                       !- View Factor to Ground
  ,                                       !- Number of Vertices
  36.7863, 22.5515, 0,                    !- X,Y,Z Vertex 1 {m}
  36.7863, 13.5765, 0,                    !- X,Y,Z Vertex 2 {m}
  26.8875, 13.5765, 0,                    !- X,Y,Z Vertex 3 {m}
  26.8875, 22.5515, 0;                    !- X,Y,Z Vertex 4 {m}

OS:Construction,
  {594c00cc-b0d5-4017-b58b-448109d3b347}, !- Handle
  ext-slab,                               !- Name
  ,                                       !- Surface Rendering Name
  {6b2cee77-8c1c-4611-b9ca-a2d06404d8fd}; !- Layer 1

OS:Material,
  {6b2cee77-8c1c-4611-b9ca-a2d06404d8fd}, !- Handle
  HW CONCRETE,                            !- Name
  Rough,                                  !- Roughness
  0.1016,                                 !- Thickness {m}
  1.311,                                  !- Conductivity {W/m-K}
  2240,                                   !- Density {kg/m3}
  836.8,                                  !- Specific Heat {J/kg-K}
  0.9,                                    !- Thermal Absorptance
  0.7,                                    !- Solar Absorptance
  0.7;                                    !- Visible Absorptance

OS:Space,
  {f414da93-dfad-451a-bd09-5829a60c8792}, !- Handle
  Office,                                 !- Name
  {efd4309f-560a-4663-ac25-378b62948238}, !- Space Type Name
  ,                                       !- Default Construction Set Name
  ,                                       !- Default Schedule Set Name
  0,                                      !- Direction of Relative North {deg}
  0,                                      !- X Origin {m}
  0,                                      !- Y Origin {m}
  0,                                      !- Z Origin {m}
  {64b615c9-b3c7-4cb9-9c54-7254d0834d37}, !- Building Story Name
  {0cce453c-d283-4d3f-b26a-210f0f7637ee}, !- Thermal Zone Name
  Yes,                                    !- Part of Total Floor Area
  {88329db2-1adf-492c-bf7e-b81a4bb0743b}; !- Design Specification Outdoor Air Object Name

OS:ThermostatSetpoint:DualSetpoint,
  {9e78c31a-1236-4ff8-858c-f432cb2a8400}, !- Handle
  {90ced48e-2f9b-40d9-8ffd-17b23437183c}, !- Name
  {ee562905-d07b-4f74-9ef4-16058046c863}, !- Heating Setpoint Temperature Schedule Name
  {65ed0d58-21e3-44aa-963f-05d1970d72ed}; !- Cooling Setpoint Temperature Schedule Name

OS:SpaceInfiltration:DesignFlowRate,
  {e28ac2f7-3060-496f-acec-13803939dd42}, !- Handle
  Sales_Infiltration,                     !- Name
  {99ea8b66-6bd7-48be-8d0f-56e359a45169}, !- Space or SpaceType Name
  {ff7aee5d-39d8-47a9-845f-9bd9779ef177}, !- Schedule Name
  Flow/ExteriorArea,                      !- Design Flow Rate Calculation Method
  ,                                       !- Design Flow Rate {m3/s}
  ,                                       !- Flow per Space Floor Area {m3/s-m2}
  0.000302,                               !- Flow per Exterior Surface Area {m3/s-m2}
  ,                                       !- Air Changes per Hour {1/hr}
  1,                                      !- Constant Term Coefficient
  0,                                      !- Temperature Term Coefficient
  0,                                      !- Velocity Term Coefficient
  0;                                      !- Velocity Squared Term Coefficient

OS:Surface,
  {9c54a044-3857-48b6-a8f6-126f533503ad}, !- Handle
  Deli_Ceiling,                           !- Name
  RoofCeiling,                            !- Surface Type
  {813c3691-5026-4b6f-8041-c3dad3f73ab3}, !- Construction Name
  {9a927b04-c15f-4e2f-b71e-b7e298c272af}, !- Space Name
  Outdoors,                               !- Outside Boundary Condition
  ,                                       !- Outside Boundary Condition Object
  SunExposed,                             !- Sun Exposure
  WindExposed,                            !- Wind Exposure
  ,                                       !- View Factor to Ground
  ,                                       !- Number of Vertices
  36.7863, -9.1251, 6.096,                !- X,Y,Z Vertex 1 {m}
  36.7863, 13.5765, 6.096,                !- X,Y,Z Vertex 2 {m}
  26.8875, 13.5765, 6.096,                !- X,Y,Z Vertex 3 {m}
  26.8875, -9.1251, 6.096;                !- X,Y,Z Vertex 4 {m}

OS:Space,
  {9a927b04-c15f-4e2f-b71e-b7e298c272af}, !- Handle
  Deli,                                   !- Name
  {716aca52-1de6-4084-a95b-be6121c2e2d2}, !- Space Type Name
  ,                                       !- Default Construction Set Name
  ,                                       !- Default Schedule Set Name
  0,                                      !- Direction of Relative North {deg}
  0,                                      !- X Origin {m}
  0,                                      !- Y Origin {m}
  0,                                      !- Z Origin {m}
  {64b615c9-b3c7-4cb9-9c54-7254d0834d37}, !- Building Story Name
  {00938f31-d782-45a3-9512-4e5bc11814f7}, !- Thermal Zone Name
  Yes,                                    !- Part of Total Floor Area
  {480eaf4b-6dee-4c06-88c0-08895a737df2}; !- Design Specification Outdoor Air Object Name

OS:ThermostatSetpoint:DualSetpoint,
  {feec72ec-9be1-48f7-afe9-cdda7bb72f41}, !- Handle
  {922384ad-f427-4df1-ac5b-70d879b9cdfb}, !- Name
  {ee562905-d07b-4f74-9ef4-16058046c863}, !- Heating Setpoint Temperature Schedule Name
  {65ed0d58-21e3-44aa-963f-05d1970d72ed}; !- Cooling Setpoint Temperature Schedule Name

OS:Schedule:Compact,
  {8808bc88-49c1-4b45-b16e-239afdd030f7}, !- Handle
  Bakery_Case:1_WALKINFREEZER_CaseCreditReduxSched, !- Name
  {1bd44958-b52e-482b-830f-7a628223b1d1}, !- Schedule Type Limits Name
  Through: 12/31,                         !- Field 1
  For:AllDays,                            !- Field 2
  Interpolate:No,                         !- Field 3
  Until: 7:00,                            !- Field 4
  0.2,                                    !- Field 5
  Until: 21:00,                           !- Field 6
  0.4,                                    !- Field 7
  Until: 24:00,                           !- Field 8
  0.2;                                    !- Field 9

OS:Schedule:Compact,
  {7a7ec2f0-e29e-4ab7-92ee-e6e5aa21d0b6}, !- Handle
  Sales_Case:1_MEATDISPLAYCASE_CaseDefrost2aDaySched, !- Name
  {d6133fd1-7d27-4227-835d-e27152f14b9b}, !- Schedule Type Limits Name
  Through: 12/31,                         !- Field 1
  For:AllDays,                            !- Field 2
  Interpolate:Yes,                        !- Field 3
  Until: 11:00,                           !- Field 4
  0,                                      !- Field 5
  Until: 11:20,                           !- Field 6
  1,                                      !- Field 7
  Until: 23:00,                           !- Field 8
  0,                                      !- Field 9
  Until: 23:20,                           !- Field 10
  1,                                      !- Field 11
  Until: 24:00,                           !- Field 12
  0;                                      !- Field 13

OS:DesignSpecification:OutdoorAir,
  {c3acb589-063d-4916-bb1d-3745bdd917b3}, !- Handle
  SZ DSOA Sales,                          !- Name
  ,                                       !- Outdoor Air Method
  ,                                       !- Outdoor Air Flow per Person {m3/s-person}
  0.0015,                                 !- Outdoor Air Flow per Floor Area {m3/s-m2}
  ,                                       !- Outdoor Air Flow Rate {m3/s}
  ,                                       !- Outdoor Air Flow Air Changes per Hour {1/hr}
  ;                                       !- Outdoor Air Flow Rate Fraction Schedule Name

OS:Curve:Quadratic,
  {2033cf1c-555a-4ca0-b4a2-e5996304b37f}, !- Handle
  Measured_CoolCStandard10Ton_EIRFFF,     !- Name
  1.192,                                  !- Coefficient1 Constant
  -0.1917,                                !- Coefficient2 x
  0,                                      !- Coefficient3 x**2
  0.776,                                  !- Minimum Value of x {BasedOnField A2}
  1.197;                                  !- Maximum Value of x {BasedOnField A2}

OS:Surface,
  {0b5e5b29-eb8b-4aa1-b369-0b330625d6ab}, !- Handle
  Produce_Wall_West,                      !- Name
  Wall,                                   !- Surface Type
  {d11d6007-0175-41e7-a632-c8c93268a7e6}, !- Construction Name
  {ab530404-4f38-4d39-911e-ac3a95af5dae}, !- Space Name
  Outdoors,                               !- Outside Boundary Condition
  ,                                       !- Outside Boundary Condition Object
  SunExposed,                             !- Sun Exposure
  WindExposed,                            !- Wind Exposure
  ,                                       !- View Factor to Ground
  ,                                       !- Number of Vertices
  -42.4038, 13.5765, 6.096,               !- X,Y,Z Vertex 1 {m}