
OS:Version,
  {0732fcbc-c1fa-4ff6-a124-89b6d2a1ab32}, !- Handle
  1.8.5;                                  !- Version Identifier

OS:Site,
  {7ab7023c-f29a-4af0-a036-0ed0d041e4e2}, !- Handle
  USA IL-CHICAGO-OHARE,                   !- Name
  41.77,                                  !- Latitude {deg}
  -87.75,                                 !- Longitude {deg}
  -6,                                     !- Time Zone {hr}
  190,                                    !- Elevation {m}
  City;                                   !- Terrain

OS:SimulationControl,
  {d5d96737-0da9-4d2a-bb2e-4352fae90018}, !- Handle
  Yes,                                    !- Do Zone Sizing Calculation
  Yes,                                    !- Do System Sizing Calculation
  Yes,                                    !- Do Plant Sizing Calculation
  No,                                     !- Run Simulation for Sizing Periods
  Yes,                                    !- Run Simulation for Weather File Run Periods
  0.04,                                   !- Loads Convergence Tolerance Value
  0.2,                                    !- Temperature Convergence Tolerance Value {deltaC}
  FullInteriorAndExterior,                !- Solar Distribution
  25,                                     !- Maximum Number of Warmup Days
  6;                                      !- Minimum Number of Warmup Days

OS:People:Definition,
  {9cb5b56e-6d98-4816-83ac-4924234527d7}, !- Handle
  DryStorage People Definition,           !- Name
  Area/Person,                            !- Number of People Calculation Method
  ,                                       !- Number of People {people}
  ,                                       !- People per Space Floor Area {person/m2}
  27.87,                                  !- Space Floor Area per Person {m2/person}
  0.3,                                    !- Fraction Radiant
  ,                                       !- Sensible Heat Fraction
  ,                                       !- Carbon Dioxide Generation Rate {m3/s-W}
  No,                                     !- Enable ASHRAE 55 Comfort Warnings
  ZoneAveraged;                           !- Mean Radiant Temperature Calculation Type

OS:People,
  {31fdb0c6-77bf-4a9f-931d-a3811cd90db9}, !- Handle
  DryStorage People,                      !- Name
  {9cb5b56e-6d98-4816-83ac-4924234527d7}, !- People Definition Name
  {188c9051-1353-4ca5-9456-4bdd0603db85}, !- Space or SpaceType Name
  {ebd8c91b-560e-4ec0-9519-dad5e6836809}, !- Number of People Schedule Name
  {676e3ddf-e8ff-4a61-8a42-7ca00be4aa74}, !- Activity Level Schedule Name
  ,                                       !- Surface Name/Angle Factor List Name
  {e1db3192-4788-4f51-83e4-c8e9bcf5b1b7}; !- Work Efficiency Schedule Name

OS:Space,
  {188c9051-1353-4ca5-9456-4bdd0603db85}, !- Handle
  DryStorage,                             !- Name
  {429b877b-5ef7-4aa9-937c-e1ca5e68f09b}, !- Space Type Name
  ,                                       !- Default Construction Set Name
  ,                                       !- Default Schedule Set Name
  0,                                      !- Direction of Relative North {deg}
  0,                                      !- X Origin {m}
  0,                                      !- Y Origin {m}
  0,                                      !- Z Origin {m}
  {d93584ff-01ac-4fd2-8275-abcba8f385ac}, !- Building Story Name
  {490bc517-acdd-4012-a345-1029f153aaf0}, !- Thermal Zone Name
  Yes,                                    !- Part of Total Floor Area
  {beac6a25-bbb4-4a4a-b46c-66628485f152}; !- Design Specification Outdoor Air Object Name

OS:Schedule:Compact,
  {d10a07e4-6694-403a-92ce-102f69dc1a72}, !- Handle
  HTGSETP_SCH,                            !- Name
  {6f4483a6-3ec5-4296-979c-3a8d76763b37}, !- Schedule Type Limits Name
  Through: 12/31,                         !- Field 1
  For SummerDesignDay,                    !- Field 2
  Until: 24:00,                           !- Field 3
  15.6,                                   !- Field 4
  For: AllOtherDays,                      !- Field 5
  Until:  6:00,                           !- Field 6
  15.6,                                   !- Field 7
  Until: 22:00,                           !- Field 8
  21.,                                    !- Field 9
  Until: 24:00,                           !- Field 10
  15.6;                                   !- Field 11

OS:ScheduleTypeLimits,
  {6f4483a6-3ec5-4296-979c-3a8d76763b37}, !- Handle
  Temperature,                            !- Name
  -60,                                    !- Lower Limit Value {BasedOnField A4}
  200,                                    !- Upper Limit Value {BasedOnField A4}
  CONTINUOUS,                             !- Numeric Type
  Temperature;                            !- Unit Type

OS:Schedule:Compact,
  {06f0819e-1151-430f-abcb-17c32372a86c}, !- Handle
  CLGSETP_SCH,                            !- Name
  {6f4483a6-3ec5-4296-979c-3a8d76763b37}, !- Schedule Type Limits Name
  Through: 12/31,                         !- Field 1
  For WinterDesignDay,                    !- Field 2
  Until: 24:00,                           !- Field 3
  30.0,                                   !- Field 4
  For: AllOtherDays,                      !- Field 5
  Until: 6:00,                            !- Field 6
  30.0,                                   !- Field 7
  Until: 22:00,                           !- Field 8
  24.0,                                   !- Field 9
  Until: 24:00,                           !- Field 10
  30.0;                                   !- Field 11

OS:Schedule:Compact,
  {ebd8c91b-560e-4ec0-9519-dad5e6836809}, !- Handle
  BLDG_OCC_SCH,                           !- Name
  {68530a25-4ae6-4331-afe9-75e5bac37111}, !- Schedule Type Limits Name
  Through: 12/31,                         !- Field 1
  For: Weekdays,                          !- Field 2
  Until: 06:00,                           !- Field 3
  0.0,                                    !- Field 4
  Until: 08:00,                           !- Field 5
  0.1,                                    !- Field 6
  Until: 09:00,                           !- Field 7
  0.2,                                    !- Field 8
  Until: 11:00,                           !- Field 9
  0.5,                                    !- Field 10
  Until: 15:00,                           !- Field 11
  0.7,                                    !- Field 12
  Until: 16:00,                           !- Field 13
  0.8,                                    !- Field 14
  Until: 17:00,                           !- Field 15
  0.7,                                    !- Field 16
  Until: 19:00,                           !- Field 17
  0.5,                                    !- Field 18
  Until: 22:00,                           !- Field 19
  0.3,                                    !- Field 20
  Until: 24:00,                           !- Field 21
  0.0,                                    !- Field 22
  For: SummerDesignDay,                   !- Field 23
  Until: 24:00,                           !- Field 24
  1.0,                                    !- Field 25
  For: Saturday,                          !- Field 26
  Until: 06:00,                           !- Field 27
  0.0,                                    !- Field 28
  Until: 08:00,                           !- Field 29
  0.1,                                    !- Field 30
  Until: 09:00,                           !- Field 31
  0.2,                                    !- Field 32
  Until: 10:00,                           !- Field 33
  0.5,                                    !- Field 34
  Until: 11:00,                           !- Field 35
  0.6,                                    !- Field 36
  Until: 17:00,                           !- Field 37
  0.8,                                    !- Field 38
  Until: 18:00,                           !- Field 39
  0.6,                                    !- Field 40
  Until: 21:00,                           !- Field 41
  0.2,                                    !- Field 42
  Until: 22:00,                           !- Field 43
  0.1,                                    !- Field 44
  Until: 24:00,                           !- Field 45
  0.0,                                    !- Field 46
  For: WinterDesignDay,                   !- Field 47
  Until: 24:00,                           !- Field 48
  0.0,                                    !- Field 49
  For: Sunday Holidays AllOtherDays,      !- Field 50
  Until: 06:00,                           !- Field 51
  0.0,                                    !- Field 52
  Until: 10:00,                           !- Field 53
  0.1,                                    !- Field 54
  Until: 12:00,                           !- Field 55
  0.2,                                    !- Field 56
  Until: 17:00,                           !- Field 57
  0.4,                                    !- Field 58
  Until: 18:00,                           !- Field 59
  0.2,                                    !- Field 60
  Until: 22:00,                           !- Field 61
  0.1,                                    !- Field 62
  Until: 24:00,                           !- Field 63
  0.0;                                    !- Field 64

OS:ScheduleTypeLimits,
  {68530a25-4ae6-4331-afe9-75e5bac37111}, !- Handle
  Fraction,                               !- Name
  0,                                      !- Lower Limit Value {BasedOnField A4}
  1,                                      !- Upper Limit Value {BasedOnField A4}
  CONTINUOUS;                             !- Numeric Type

OS:Schedule:Compact,
  {676e3ddf-e8ff-4a61-8a42-7ca00be4aa74}, !- Handle
  ACTIVITY_SCH,                           !- Name
  {54c04e42-efe6-4232-91a6-8d5c9680978f}, !- Schedule Type Limits Name
  Through: 12/31,                         !- Field 1
  For: AllDays,                           !- Field 2
  Until: 24:00,                           !- Field 3
  120.;                                   !- Field 4

OS:ScheduleTypeLimits,
  {70158875-7863-4956-9a54-49296364b333}, !- Handle
  {e257b61b-673a-4c10-bd7a-e3cde8774e31}; !- Name

OS:ScheduleTypeLimits,
  {54c04e42-efe6-4232-91a6-8d5c9680978f}, !- Handle
  ActivityLevel,                          !- Name
  0,                                      !- Lower Limit Value {BasedOnField A4}
  ,                                       !- Upper Limit Value {BasedOnField A4}
  Continuous,                             !- Numeric Type
  ActivityLevel;                          !- Unit Type

OS:Schedule:Compact,
  {e1db3192-4788-4f51-83e4-c8e9bcf5b1b7}, !- Handle
  WORK_EFF_SCH,                           !- Name
  {68530a25-4ae6-4331-afe9-75e5bac37111}, !- Schedule Type Limits Name
  Through: 12/31,                         !- Field 1
  For: AllDays,                           !- Field 2
  Until: 24:00,                           !- Field 3
  0.0;                                    !- Field 4

OS:Meter,
  {dbb2f370-6829-4dfb-9956-cfb4db52f406}, !- Handle
  Gas:Facility,                           !- Name
  hourly,                                 !- Reporting Frequency
  False,                                  !- Meter File Only
  False;                                  !- Cumulative

OS:Surface,
  {e5b8d4e5-2609-47e9-9e7f-b792f4d248be}, !- Handle
  Sales_Wall_West,                        !- Name
  Wall,                                   !- Surface Type
  {809406b6-adc8-4ae4-9d32-0c556aea59df}, !- Construction Name
  {048aa248-4c1f-4d47-9017-802053129d94}, !- Space Name
  Surface,                                !- Outside Boundary Condition
  {0c639df1-11a4-4d6f-823f-64a409b1b03e}, !- Outside Boundary Condition Object
  NoSun,                                  !- Sun Exposure
  NoWind,                                 !- Wind Exposure
  ,                                       !- View Factor to Ground
  ,                                       !- Number of Vertices
  -26.1698, 13.5765, 6.096,               !- X,Y,Z Vertex 1 {m}
  -26.1698, 13.5765, 0,                   !- X,Y,Z Vertex 2 {m}
  -26.1698, -30.2429, 0,                  !- X,Y,Z Vertex 3 {m}
  -26.1698, -30.2429, 6.096;              !- X,Y,Z Vertex 4 {m}

OS:Construction,
  {809406b6-adc8-4ae4-9d32-0c556aea59df}, !- Handle
  int-walls,                              !- Name
  ,                                       !- Surface Rendering Name
  {aa7bd0d1-2791-478c-82b1-e01b467224b4}, !- Layer 1
  {aa7bd0d1-2791-478c-82b1-e01b467224b4}; !- Layer 2

OS:Material,
  {aa7bd0d1-2791-478c-82b1-e01b467224b4}, !- Handle
  1/2IN Gypsum,                           !- Name
  Smooth,                                 !- Roughness
  0.0127,                                 !- Thickness {m}
  0.16,                                   !- Conductivity {W/m-K}
  784.9,                                  !- Density {kg/m3}
  830,                                    !- Specific Heat {J/kg-K}
  0.9,                                    !- Thermal Absorptance
  0.92,                                   !- Solar Absorptance
  0.92;                                   !- Visible Absorptance

OS:Space,
  {048aa248-4c1f-4d47-9017-802053129d94}, !- Handle
  Sales,                                  !- Name
  {e19e11cb-b598-421e-90d2-983cd2edeb74}, !- Space Type Name
  ,                                       !- Default Construction Set Name
  ,                                       !- Default Schedule Set Name
  0,                                      !- Direction of Relative North {deg}
  0,                                      !- X Origin {m}
  0,                                      !- Y Origin {m}
  0,                                      !- Z Origin {m}
  {d93584ff-01ac-4fd2-8275-abcba8f385ac}, !- Building Story Name
  {3fb8acd6-5af8-43db-92dc-71bfe7afe0d4}, !- Thermal Zone Name
  Yes,                                    !- Part of Total Floor Area
  {7a2fecd0-f209-4b1d-b8e1-53279c5356d4}; !- Design Specification Outdoor Air Object Name

OS:GasEquipment:Definition,
  {1121e575-93e1-4975-84d7-22fb2e72e656}, !- Handle
  Deli_MiscGas_Equip Definition,          !- Name
  EquipmentLevel,                         !- Design Level Calculation Method
  6053,                                   !- Design Level {W}
  ,                                       !- Watts per Space Floor Area {W/m2}
  ,                                       !- Watts per Person {W/Person}
  0,                                      !- Fraction Latent
  0.5,                                    !- Fraction Radiant
  0;                                      !- Fraction Lost

OS:GasEquipment,
  {40f5ba9f-335e-4e2b-9a36-d900ac86af37}, !- Handle
  Deli_MiscGas_Equip,                     !- Name
  {1121e575-93e1-4975-84d7-22fb2e72e656}, !- Gas Equipment Definition Name
  {11dfb337-483e-4c3b-aa52-60e4f5a2cc63}, !- Space or SpaceType Name
  {cb40fdf4-d3cb-4831-a1b9-4f85f13bd246}, !- Schedule Name
  ,                                       !- Multiplier
  MiscGas;                                !- End-Use Subcategory

OS:Space,
  {11dfb337-483e-4c3b-aa52-60e4f5a2cc63}, !- Handle
  Deli,                                   !- Name
  {e19e11cb-b598-421e-90d2-983cd2edeb74}, !- Space Type Name
  ,                                       !- Default Construction Set Name
  ,                                       !- Default Schedule Set Name
  0,                                      !- Direction of Relative North {deg}
  0,                                      !- X Origin {m}
  0,                                      !- Y Origin {m}
  0,                                      !- Z Origin {m}
  {d93584ff-01ac-4fd2-8275-abcba8f385ac}, !- Building Story Name
  {886bae32-add4-4119-affc-a51f9435ffa2}, !- Thermal Zone Name
  Yes,                                    !- Part of Total Floor Area
  {9a66c321-8f57-4572-9340-b5a598278f74}; !- Design Specification Outdoor Air Object Name

OS:Schedule:Compact,
  {cb40fdf4-d3cb-4831-a1b9-4f85f13bd246}, !- Handle
  BLDG_EQUIP_SCH,                         !- Name
  {68530a25-4ae6-4331-afe9-75e5bac37111}, !- Schedule Type Limits Name
  Through: 12/31,                         !- Field 1
  For: Weekdays,                          !- Field 2
  Until: 06:00,                           !- Field 3
  0.2,                                    !- Field 4
  Until: 08:00,                           !- Field 5
  0.4,                                    !- Field 6
  Until: 09:00,                           !- Field 7
  0.7,                                    !- Field 8
  Until: 18:00,                           !- Field 9
  0.9,                                    !- Field 10
  Until: 20:00,                           !- Field 11
  0.8,                                    !- Field 12
  Until: 21:00,                           !- Field 13
  0.7,                                    !- Field 14
  Until: 22:00,                           !- Field 15
  0.4,                                    !- Field 16
  Until: 24:00,                           !- Field 17
  0.2,                                    !- Field 18
  For: Saturday,                          !- Field 19
  Until: 06:00,                           !- Field 20
  0.15,                                   !- Field 21
  Until: 08:00,                           !- Field 22
  0.3,                                    !- Field 23
  Until: 09:00,                           !- Field 24
  0.5,                                    !- Field 25
  Until: 10:00,                           !- Field 26
  0.8,                                    !- Field 27
  Until: 18:00,                           !- Field 28
  0.9,                                    !- Field 29
  Until: 19:00,                           !- Field 30
  0.7,                                    !- Field 31
  Until: 21:00,                           !- Field 32
  0.5,                                    !- Field 33
  Until: 22:00,                           !- Field 34
  0.3,                                    !- Field 35
  Until: 24:00,                           !- Field 36
  0.15,                                   !- Field 37
  For: SummerDesignDay,                   !- Field 38
  Until: 24:00,                           !- Field 39
  1.0,                                    !- Field 40
  For: WinterDesignDay,                   !- Field 41
  Until: 24:00,                           !- Field 42
  0.0,                                    !- Field 43
  For: Sunday Holidays AllOtherDays,      !- Field 44
  Until: 06:00,                           !- Field 45
  0.15,                                   !- Field 46
  Until: 10:00,                           !- Field 47
  0.3,                                    !- Field 48
  Until: 12:00,                           !- Field 49
  0.6,                                    !- Field 50
  Until: 17:00,                           !- Field 51
  0.8,                                    !- Field 52
  Until: 18:00,                           !- Field 53
  0.6,                                    !- Field 54
  Until: 22:00,                           !- Field 55
  0.4,                                    !- Field 56
  Until: 24:00,                           !- Field 57
  0.15;                                   !- Field 58

OS:Schedule:Compact,
  {399b83e6-b64b-48c6-9c66-f505db3d9a61}, !- Handle
  Produce_Case:1_ MULTIDECKDIARYANDDELICASE_CaseDefrost2aDaySched, !- Name
  {91176bd8-5743-4ec6-b043-dbc4b8ddd058}, !- Schedule Type Limits Name
  Through: 12/31,                         !- Field 1
  For:AllDays,                            !- Field 2
  Interpolate:Yes,                        !- Field 3
  Until: 11:00,                           !- Field 4
  0,                                      !- Field 5
  Until: 11:20,                           !- Field 6
  1,                                      !- Field 7
  Until: 23:00,                           !- Field 8
  0,                                      !- Field 9
  Until: 23:20,                           !- Field 10
  1,                                      !- Field 11
  Until: 24:00,                           !- Field 12
  0;                                      !- Field 13

OS:ScheduleTypeLimits,
  {91176bd8-5743-4ec6-b043-dbc4b8ddd058}, !- Handle
  On/Off,                                 !- Name
  0,                                      !- Lower Limit Value {BasedOnField A4}
  1,                                      !- Upper Limit Value {BasedOnField A4}
  DISCRETE,                               !- Numeric Type
  Availability;                           !- Unit Type

OS:Surface,
  {0c639df1-11a4-4d6f-823f-64a409b1b03e}, !- Handle
  Sales_Wall_West-PPAutoCreateOther,      !- Name
  Wall,                                   !- Surface Type
  {809406b6-adc8-4ae4-9d32-0c556aea59df}, !- Construction Name
  {ecca3b0c-8293-4edb-b68d-f562ad3d5b10}, !- Space Name
  Surface,                                !- Outside Boundary Condition
  {e5b8d4e5-2609-47e9-9e7f-b792f4d248be}, !- Outside Boundary Condition Object
  NoSun,                                  !- Sun Exposure
  NoWind,                                 !- Wind Exposure
  ,                                       !- View Factor to Ground
  ,                                       !- Number of Vertices
  -26.1698, -30.2429, 6.096,              !- X,Y,Z Vertex 1 {m}
  -26.1698, -30.2429, 0,                  !- X,Y,Z Vertex 2 {m}
  -26.1698, 13.5765, 0,                   !- X,Y,Z Vertex 3 {m}
  -26.1698, 13.5765, 6.096;               !- X,Y,Z Vertex 4 {m}

OS:Space,
  {ecca3b0c-8293-4edb-b68d-f562ad3d5b10}, !- Handle
  Produce,                                !- Name
  {e19e11cb-b598-421e-90d2-983cd2edeb74}, !- Space Type Name
  ,                                       !- Default Construction Set Name
  ,                                       !- Default Schedule Set Name
  0,                                      !- Direction of Relative North {deg}
  0,                                      !- X Origin {m}
  0,                                      !- Y Origin {m}
  0,                                      !- Z Origin {m}
  {d93584ff-01ac-4fd2-8275-abcba8f385ac}, !- Building Story Name
  {6bf82eca-4fd2-40c6-9c01-64f552b94f3d}, !- Thermal Zone Name
  Yes,                                    !- Part of Total Floor Area
  {313eb083-e942-408d-bb44-aa4f42f372b4}; !- Design Specification Outdoor Air Object Name

OS:Schedule:Compact,
  {615775c8-7e6a-4b7e-8f84-0d8dd9e89d18}, !- Handle
  Sales_Case:5_WALKINFREEZER_WalkInStockingSched, !- Name
  ,                                       !- Schedule Type Limits Name
  Through: 12/31,                         !- Field 1
  For: Tuesday Friday,                    !- Field 2
  Until: 4:00,                            !- Field 3
  0.0,                                    !- Field 4
  Until: 5:00,                            !- Field 5
  725.0,                                  !- Field 6
  Until: 6:00,                            !- Field 7
  417.0,                                  !- Field 8
  Until: 7:00,                            !- Field 9
  290.0,                                  !- Field 10
  Until: 24:00,                           !- Field 11
  0.0,                                    !- Field 12
  For: AllOtherDays,                      !- Field 13
  Until: 4:00,                            !- Field 14
  0.0,                                    !- Field 15
  Until: 5:00,                            !- Field 16
  125.0,                                  !- Field 17
  Until: 6:00,                            !- Field 18
  117.0,                                  !- Field 19
  Until: 7:00,                            !- Field 20
  90.0,                                   !- Field 21
  Until: 19:00,                           !- Field 22
  0.0,                                    !- Field 23
  Until: 20:00,                           !- Field 24
  125.0,                                  !- Field 25
  Until: 21:00,                           !- Field 26
  117.0,                                  !- Field 27
  Until: 22:00,                           !- Field 28
  90.0,                                   !- Field 29
  Until: 24:00,                           !- Field 30
  0.0;                                    !- Field 31

OS:ScheduleTypeLimits,
  {3609efc3-766c-4d5f-815e-80f3df63b3f9}, !- Handle
  {47b6860b-4822-43a4-884b-79236c3b5177}; !- Name

OS:Surface,
  {ffdd066c-e7ad-468e-9c45-9e554e9a6d18}, !- Handle
  Deli_Ceiling,                           !- Name
  RoofCeiling,                            !- Surface Type
  {3cb18cf5-e89b-4bf3-b512-4316cdc5a42d}, !- Construction Name
  {11dfb337-483e-4c3b-aa52-60e4f5a2cc63}, !- Space Name
  Outdoors,                               !- Outside Boundary Condition
  ,                                       !- Outside Boundary Condition Object
  SunExposed,                             !- Sun Exposure
  WindExposed,                            !- Wind Exposure
  ,                                       !- View Factor to Ground
  ,                                       !- Number of Vertices
  36.7863, -9.1251, 6.096,                !- X,Y,Z Vertex 1 {m}
  36.7863, 13.5765, 6.096,                !- X,Y,Z Vertex 2 {m}
  26.8875, 13.5765, 6.096,                !- X,Y,Z Vertex 3 {m}
  26.8875, -9.1251, 6.096;                !- X,Y,Z Vertex 4 {m}

OS:Construction,
  {3cb18cf5-e89b-4bf3-b512-4316cdc5a42d}, !- Handle
  IEAD Non-res Roof,                      !- Name
  ,                                       !- Surface Rendering Name
  {006160c7-5d58-41c5-a0dd-e9fd0cc7c109}, !- Layer 1
  {08a70368-01a3-4636-8273-c6f698560ccb}, !- Layer 2
  {179ebff8-836c-4256-b885-bb5daa1053b9}; !- Layer 3

OS:Material,
  {006160c7-5d58-41c5-a0dd-e9fd0cc7c109}, !- Handle
  Roof Membrane,                          !- Name
  VeryRough,                              !- Roughness
  0.0095,                                 !- Thickness {m}
  0.16,                                   !- Conductivity {W/m-K}
  1121.29,                                !- Density {kg/m3}
  1460,                                   !- Specific Heat {J/kg-K}
  0.9,                                    !- Thermal Absorptance
  0.7,                                    !- Solar Absorptance
  0.7;                                    !- Visible Absorptance

OS:Material,
  {08a70368-01a3-4636-8273-c6f698560ccb}, !- Handle
  IEAD NonRes Roof Insulation,            !- Name
  MediumRough,                            !- Roughness
  0.127338688569477,                      !- Thickness {m}
  0.049,                                  !- Conductivity {W/m-K}
  265,                                    !- Density {kg/m3}
  836.8,                                  !- Specific Heat {J/kg-K}
  0.9,                                    !- Thermal Absorptance
  0.7,                                    !- Solar Absorptance
  0.7;                                    !- Visible Absorptance

OS:Material,
  {179ebff8-836c-4256-b885-bb5daa1053b9}, !- Handle
  Metal Decking,                          !- Name
  MediumSmooth,                           !- Roughness
  0.0015,                                 !- Thickness {m}
  45.006,                                 !- Conductivity {W/m-K}
  7680,                                   !- Density {kg/m3}
  418.4,                                  !- Specific Heat {J/kg-K}
  0.9,                                    !- Thermal Absorptance
  0.7,                                    !- Solar Absorptance
  0.3;                                    !- Visible Absorptance

OS:People:Definition,
  {7f94f715-1085-41e8-86e4-e09f7918ce8b}, !- Handle
  Produce People Definition,              !- Name
  Area/Person,                            !- Number of People Calculation Method
  ,                                       !- Number of People {people}
  ,                                       !- People per Space Floor Area {person/m2}
  11.61,                                  !- Space Floor Area per Person {m2/person}
  0.3,                                    !- Fraction Radiant
  ,                                       !- Sensible Heat Fraction
  ,                                       !- Carbon Dioxide Generation Rate {m3/s-W}
  No,                                     !- Enable ASHRAE 55 Comfort Warnings
  ZoneAveraged;                           !- Mean Radiant Temperature Calculation Type

OS:People,
  {7402e9da-a6d0-4c54-9333-e3f91eaf36f1}, !- Handle
  Produce People,                         !- Name
  {7f94f715-1085-41e8-86e4-e09f7918ce8b}, !- People Definition Name
  {ecca3b0c-8293-4edb-b68d-f562ad3d5b10}, !- Space or SpaceType Name
  {ebd8c91b-560e-4ec0-9519-dad5e6836809}, !- Number of People Schedule Name
  {676e3ddf-e8ff-4a61-8a42-7ca00be4aa74}, !- Activity Level Schedule Name
  ,                                       !- Surface Name/Angle Factor List Name
  {e1db3192-4788-4f51-83e4-c8e9bcf5b1b7}; !- Work Efficiency Schedule Name

OS:Meter,
  {5dce72b9-408e-46ee-a1ff-59f1b07eb5d0}, !- Handle
  Humidifier:Electricity,                 !- Name
  hourly,                                 !- Reporting Frequency
  False,                                  !- Meter File Only
  False;                                  !- Cumulative

OS:Schedule:Compact,
  {26c84b53-419e-4f52-8ba2-9e7bc4145549}, !- Handle
  Sales_Case:2_ MULTIDECKDIARYANDDELICASE_CaseDefrost2aDaySched, !- Name
  {91176bd8-5743-4ec6-b043-dbc4b8ddd058}, !- Schedule Type Limits Name
  Through: 12/31,                         !- Field 1
  For:AllDays,                            !- Field 2
  Interpolate:Yes,                        !- Field 3
  Until: 11:00,                           !- Field 4
  0,                                      !- Field 5
  Until: 11:20,                           !- Field 6
  1,                                      !- Field 7
  Until: 23:00,                           !- Field 8
  0,                                      !- Field 9
  Until: 23:20,                           !- Field 10
  1,                                      !- Field 11
  Until: 24:00,                           !- Field 12