
OS:Version,
  {db9ddc6d-9a54-4b5a-9c0e-5f71d3f8e793}, !- Handle
  1.8.0;                                  !- Version Identifier

OS:Site,
  {ebb356d1-f99c-4d7f-b6d6-a8bc0eb274e8}, !- Handle
  USA IL-CHICAGO-OHARE,                   !- Name
  41.77,                                  !- Latitude {deg}
  -87.75,                                 !- Longitude {deg}
  -6,                                     !- Time Zone {hr}
  190,                                    !- Elevation {m}
  City;                                   !- Terrain

OS:SimulationControl,
  {9553d146-b49d-4b31-8c34-5c6ebb84a826}, !- Handle
  Yes,                                    !- Do Zone Sizing Calculation
  Yes,                                    !- Do System Sizing Calculation
  Yes,                                    !- Do Plant Sizing Calculation
  No,                                     !- Run Simulation for Sizing Periods
  Yes,                                    !- Run Simulation for Weather File Run Periods
  0.04,                                   !- Loads Convergence Tolerance Value
  0.2,                                    !- Temperature Convergence Tolerance Value {deltaC}
  FullInteriorAndExterior,                !- Solar Distribution
  40,                                     !- Maximum Number of Warmup Days
  6;                                      !- Minimum Number of Warmup Days

OS:Surface,
  {deb9cfd3-ae4c-41df-b742-c7ff523c04e3}, !- Handle
  Fine Storage Office_Wall_West,          !- Name
  Wall,                                   !- Surface Type
  {9669cef1-beb4-4e86-b385-98ff1f84263f}, !- Construction Name
  {8a8f1ca5-bb47-4d5e-b74b-610d75af6754}, !- Space Name
  Outdoors,                               !- Outside Boundary Condition
  ,                                       !- Outside Boundary Condition Object
  SunExposed,                             !- Sun Exposure
  WindExposed,                            !- Wind Exposure
  ,                                       !- View Factor to Ground
  ,                                       !- Number of Vertices
  0, 9.1435, 8.534,                       !- X,Y,Z Vertex 1 {m}
  0, 9.1435, 4.267,                       !- X,Y,Z Vertex 2 {m}
  0, 0, 4.267,                            !- X,Y,Z Vertex 3 {m}
  0, 0, 8.534;                            !- X,Y,Z Vertex 4 {m}

OS:Construction,
  {9669cef1-beb4-4e86-b385-98ff1f84263f}, !- Handle
  Metal Bldg Semi-Cond Ext Wall,          !- Name
  ,                                       !- Surface Rendering Name
  {50c4abc7-906e-46fe-ac7e-23c2c52fcfa5}, !- Layer 1
  {86063129-a9af-4c39-952b-77517ab5bcde}, !- Layer 2
  {8e2845c6-13cb-4972-9a57-fa5e9653d227}; !- Layer 3

OS:Material,
  {50c4abc7-906e-46fe-ac7e-23c2c52fcfa5}, !- Handle
  Metal Siding,                           !- Name
  Smooth,                                 !- Roughness
  0.0015,                                 !- Thickness {m}
  44.96,                                  !- Conductivity {W/m-K}
  7688.86,                                !- Density {kg/m3}
  410,                                    !- Specific Heat {J/kg-K}
  0.9,                                    !- Thermal Absorptance
  0.2,                                    !- Solar Absorptance
  0.2;                                    !- Visible Absorptance

OS:Material,
  {86063129-a9af-4c39-952b-77517ab5bcde}, !- Handle
  Metal Building Semi-Cond Wall Insulation, !- Name
  MediumRough,                            !- Roughness
  0.0495494599433393,                     !- Thickness {m}
  0.049,                                  !- Conductivity {W/m-K}
  265,                                    !- Density {kg/m3}
  836.8,                                  !- Specific Heat {J/kg-K}
  0.9,                                    !- Thermal Absorptance
  0.7,                                    !- Solar Absorptance
  0.7;                                    !- Visible Absorptance

OS:Material,
  {8e2845c6-13cb-4972-9a57-fa5e9653d227}, !- Handle
  1/2IN Gypsum,                           !- Name
  Smooth,                                 !- Roughness
  0.0127,                                 !- Thickness {m}
  0.16,                                   !- Conductivity {W/m-K}
  784.9,                                  !- Density {kg/m3}
  830,                                    !- Specific Heat {J/kg-K}
  0.9,                                    !- Thermal Absorptance
  0.92,                                   !- Solar Absorptance
  0.92;                                   !- Visible Absorptance

OS:Space,
  {8a8f1ca5-bb47-4d5e-b74b-610d75af6754}, !- Handle
  FineStorage,                            !- Name
  {ad659bfa-bbe1-41e1-8036-8082ed6970b2}, !- Space Type Name
  ,                                       !- Default Construction Set Name
  ,                                       !- Default Schedule Set Name
  0,                                      !- Direction of Relative North {deg}
  0,                                      !- X Origin {m}
  0,                                      !- Y Origin {m}
  0,                                      !- Z Origin {m}
  {afc23c9b-a47f-48e8-8ef3-c542737d0e63}, !- Building Story Name
  {16193356-b7e6-4b0b-ac69-5be55a1bf645}, !- Thermal Zone Name
  Yes,                                    !- Part of Total Floor Area
  {0765cbd3-58cc-4bbd-bfa0-5da2dc79ab31}; !- Design Specification Outdoor Air Object Name

OS:ThermostatSetpoint:DualSetpoint,
  {b2f06e58-4d85-435d-bbb4-64ba7c7b75b5}, !- Handle
  {da5f3bff-8cb2-498a-a61d-25b48e2e6f7a}, !- Name
  {4f4614bb-aa94-477f-bf33-251327b28bec}, !- Heating Setpoint Temperature Schedule Name
  {e01e6ae9-79b2-4081-8faf-08b05beb37ef}; !- Cooling Setpoint Temperature Schedule Name

OS:Schedule:Compact,
  {4f4614bb-aa94-477f-bf33-251327b28bec}, !- Handle
  HTGSETP_FineStorage_SCH,                !- Name
  {7cea8359-ce52-414c-9c28-08eb97f3d96b}, !- Schedule Type Limits Name
  Through: 12/31,                         !- Field 1
  For: AllDays,                           !- Field 2
  Until: 24:00,                           !- Field 3
  15.6;                                   !- Field 4

OS:ScheduleTypeLimits,
  {7cea8359-ce52-414c-9c28-08eb97f3d96b}, !- Handle
  Temperature,                            !- Name
  -60,                                    !- Lower Limit Value {BasedOnField A4}
  200,                                    !- Upper Limit Value {BasedOnField A4}
  CONTINUOUS,                             !- Numeric Type
  Temperature;                            !- Unit Type

OS:Schedule:Compact,
  {e01e6ae9-79b2-4081-8faf-08b05beb37ef}, !- Handle
  CLGSETP_FineStorage_SCH,                !- Name
  {7cea8359-ce52-414c-9c28-08eb97f3d96b}, !- Schedule Type Limits Name
  Through: 12/31,                         !- Field 1
  For: AllDays,                           !- Field 2
  Until: 24:00,                           !- Field 3
  26.7;                                   !- Field 4

OS:Surface,
  {3b545e76-2124-4fdc-ae54-8492e610f844}, !- Handle
  Office_Ceiling,                         !- Name
  RoofCeiling,                            !- Surface Type
  {a60cb12c-6303-4f81-b8ad-c0b566eaa2a1}, !- Construction Name
  {41e864da-8e38-40b3-b599-d957f9b49fd2}, !- Space Name
  Surface,                                !- Outside Boundary Condition
  {9831582d-f2dc-4e2d-9a7e-b1df2d638055}, !- Outside Boundary Condition Object
  NoSun,                                  !- Sun Exposure
  NoWind,                                 !- Wind Exposure
  ,                                       !- View Factor to Ground
  ,                                       !- Number of Vertices
  25.9067, 0, 4.267,                      !- X,Y,Z Vertex 1 {m}
  25.9067, 9.1435, 4.267,                 !- X,Y,Z Vertex 2 {m}
  0, 9.1435, 4.267,                       !- X,Y,Z Vertex 3 {m}
  0, 0, 4.267;                            !- X,Y,Z Vertex 4 {m}

OS:Construction,
  {a60cb12c-6303-4f81-b8ad-c0b566eaa2a1}, !- Handle
  int-walls,                              !- Name
  ,                                       !- Surface Rendering Name
  {8e2845c6-13cb-4972-9a57-fa5e9653d227}, !- Layer 1
  {8e2845c6-13cb-4972-9a57-fa5e9653d227}; !- Layer 2

OS:Space,
  {41e864da-8e38-40b3-b599-d957f9b49fd2}, !- Handle
  Office,                                 !- Name
  {98a1ace4-b5c8-4287-b8b3-89c3d5403ba4}, !- Space Type Name
  ,                                       !- Default Construction Set Name
  ,                                       !- Default Schedule Set Name
  0,                                      !- Direction of Relative North {deg}
  0,                                      !- X Origin {m}
  0,                                      !- Y Origin {m}
  0,                                      !- Z Origin {m}
  {afc23c9b-a47f-48e8-8ef3-c542737d0e63}, !- Building Story Name
  {16193356-b7e6-4b0b-ac69-5be55a1bf645}, !- Thermal Zone Name
  Yes,                                    !- Part of Total Floor Area
  {9fe78368-8dcb-4626-8b00-c227b3df12ac}; !- Design Specification Outdoor Air Object Name

OS:ThermostatSetpoint:DualSetpoint,
  {74be6f37-9b83-4d31-bc76-f64f69238d5c}, !- Handle
  {2bb36314-5f68-4976-bb4a-88a209c25a7e}, !- Name
  {40c0a611-e135-43ce-86ab-973385b24757}, !- Heating Setpoint Temperature Schedule Name
  {cfe8879c-1dc1-4ea6-ab14-b6f9b1f2bf30}; !- Cooling Setpoint Temperature Schedule Name

OS:Schedule:Compact,
  {40c0a611-e135-43ce-86ab-973385b24757}, !- Handle
  HTGSETP_SCH,                            !- Name
  {7cea8359-ce52-414c-9c28-08eb97f3d96b}, !- Schedule Type Limits Name
  Through: 12/31,                         !- Field 1
  For: Weekdays,                          !- Field 2
  Until: 06:00,                           !- Field 3
  15.5,                                   !- Field 4
  Until: 17:00,                           !- Field 5
  21.0,                                   !- Field 6
  Until: 24:00,                           !- Field 7
  15.5,                                   !- Field 8
  For WinterDesignDay,                    !- Field 9
  Until: 24:00,                           !- Field 10
  21.0,                                   !- Field 11
  For: Saturday,                          !- Field 12
  Until: 07:00,                           !- Field 13
  15.5,                                   !- Field 14
  Until: 16:00,                           !- Field 15
  21.0,                                   !- Field 16
  Until: 24:00,                           !- Field 17
  15.5,                                   !- Field 18
  For: AllOtherDays,                      !- Field 19
  Until: 24:00,                           !- Field 20
  15.5;                                   !- Field 21

OS:Schedule:Compact,
  {cfe8879c-1dc1-4ea6-ab14-b6f9b1f2bf30}, !- Handle
  CLGSETP_SCH,                            !- Name
  {7cea8359-ce52-414c-9c28-08eb97f3d96b}, !- Schedule Type Limits Name
  Through: 12/31,                         !- Field 1
  For: Weekdays SummerDesignDay,          !- Field 2
  Until: 07:00,                           !- Field 3
  30.0,                                   !- Field 4
  Until: 17:00,                           !- Field 5
  24.0,                                   !- Field 6
  Until: 24:00,                           !- Field 7
  30.0,                                   !- Field 8
  For: Saturday,                          !- Field 9
  Until: 08:00,                           !- Field 10
  30.0,                                   !- Field 11
  Until: 16:00,                           !- Field 12
  24.0,                                   !- Field 13
  Until: 24:00,                           !- Field 14
  30.0,                                   !- Field 15
  For: AllOtherDays,                      !- Field 16
  Until: 24:00,                           !- Field 17
  30.0;                                   !- Field 18

OS:ScheduleTypeLimits,
  {e22dd504-5d77-47db-a83b-9fb75674bf1d}, !- Handle
  On/Off,                                 !- Name
  0,                                      !- Lower Limit Value {BasedOnField A4}
  1,                                      !- Upper Limit Value {BasedOnField A4}
  DISCRETE,                               !- Numeric Type
  Availability;                           !- Unit Type

OS:RunPeriod,
  {0b99c071-005d-4ff5-9789-4f07aa4d0b59}, !- Handle
  Run Period 1,                           !- Name
  1,                                      !- Begin Month
  1,                                      !- Begin Day of Month
  12,                                     !- End Month
  31,                                     !- End Day of Month
  No,                                     !- Use Weather File Holidays and Special Days
  No,                                     !- Use Weather File Daylight Saving Period
  No,                                     !- Apply Weekend Holiday Rule
  Yes,                                    !- Use Weather File Rain Indicators
  Yes,                                    !- Use Weather File Snow Indicators
  1;                                      !- Number of Times Runperiod to be Repeated

OS:YearDescription,
  {9cee4843-9559-487c-8950-238b569870b7}, !- Handle
  ,                                       !- Calendar Year
  Sunday;                                 !- Day of Week for Start Day

OS:Material,
  {1cd4d3e2-3633-4277-8828-29ccaaf7a408}, !- Handle
  Roof Membrane,                          !- Name
  VeryRough,                              !- Roughness
  0.0095,                                 !- Thickness {m}
  0.16,                                   !- Conductivity {W/m-K}
  1121.29,                                !- Density {kg/m3}
  1460,                                   !- Specific Heat {J/kg-K}
  0.9,                                    !- Thermal Absorptance
  0.7,                                    !- Solar Absorptance
  0.7;                                    !- Visible Absorptance

OS:ScheduleTypeLimits,
  {f16a6653-6c80-45ca-afcb-76370e2153c4}, !- Handle
  {d6c6ca53-c237-44e4-b302-d7713f4040a1}; !- Name

OS:SubSurface,
  {394ec2fb-3f68-4e3b-8296-0c684fb5f092}, !- Handle
  BulkStorage_Wall_West_OHDoor_5,         !- Name
  Door,                                   !- Sub Surface Type
  {1dcc3b9f-3342-4981-9e1d-a81667221758}, !- Construction Name
  {7ce894d9-1fde-4040-94cb-e2278ad7ef69}, !- Surface Name
  ,                                       !- Outside Boundary Condition Object
  ,                                       !- View Factor to Ground
  ,                                       !- Shading Control Name
  ,                                       !- Frame and Divider Name
  1,                                      !- Multiplier
  ,                                       !- Number of Vertices
  0, 57.6806, 3.0478,                     !- X,Y,Z Vertex 1 {m}
  0, 57.6806, 0,                          !- X,Y,Z Vertex 2 {m}
  0, 55.2423, 0,                          !- X,Y,Z Vertex 3 {m}
  0, 55.2423, 3.0478;                     !- X,Y,Z Vertex 4 {m}

OS:Construction,
  {1dcc3b9f-3342-4981-9e1d-a81667221758}, !- Handle
  Overhead Door Semi-Cond,                !- Name
  ,                                       !- Surface Rendering Name
  {d1a2b083-c522-4214-895d-79c3d7b53b86}; !- Layer 1

OS:Material:NoMass,
  {d1a2b083-c522-4214-895d-79c3d7b53b86}, !- Handle
  Std Overhead Door Panel Semi-Cond,      !- Name
  MediumRough,                            !- Roughness
  0.001,                                  !- Thermal Resistance {m2-K/W}
  0.9,                                    !- Thermal Absorptance
  0.7,                                    !- Solar Absorptance
  0.7;                                    !- Visible Absorptance

OS:Surface,
  {7ce894d9-1fde-4040-94cb-e2278ad7ef69}, !- Handle
  BulkStorage_Wall_West,                  !- Name
  Wall,                                   !- Surface Type
  {9669cef1-beb4-4e86-b385-98ff1f84263f}, !- Construction Name
  {6dea74bb-c6c2-478c-b1fa-0617a5934521}, !- Space Name
  Outdoors,                               !- Outside Boundary Condition
  ,                                       !- Outside Boundary Condition Object
  SunExposed,                             !- Sun Exposure
  WindExposed,                            !- Wind Exposure
  ,                                       !- View Factor to Ground
  ,                                       !- Number of Vertices
  0, 100.579, 8.534,                      !- X,Y,Z Vertex 1 {m}
  0, 100.579, 0,                          !- X,Y,Z Vertex 2 {m}
  0, 30.4785, 0,                          !- X,Y,Z Vertex 3 {m}
  0, 30.4785, 8.534;                      !- X,Y,Z Vertex 4 {m}

OS:Space,
  {6dea74bb-c6c2-478c-b1fa-0617a5934521}, !- Handle
  BulkStorage,                            !- Name
  {b9d2b54d-0eb1-453a-b422-45ce75866e02}, !- Space Type Name
  ,                                       !- Default Construction Set Name
  ,                                       !- Default Schedule Set Name
  0,                                      !- Direction of Relative North {deg}
  0,                                      !- X Origin {m}
  0,                                      !- Y Origin {m}
  0,                                      !- Z Origin {m}
  {afc23c9b-a47f-48e8-8ef3-c542737d0e63}, !- Building Story Name
  {6cc69ce1-ed48-4270-9103-bcb46e8fd755}, !- Thermal Zone Name
  Yes,                                    !- Part of Total Floor Area
  {cd046c43-f3eb-46e5-9c26-aacfc9e74f73}; !- Design Specification Outdoor Air Object Name

OS:ThermostatSetpoint:DualSetpoint,
  {2e2db3fa-222a-4125-affe-3f455db94506}, !- Handle
  {a730ff40-cbcc-4e1c-ad2f-4f0589702343}, !- Name
  {9c80517c-8a24-48d5-ab5f-8028a4f756bc}, !- Heating Setpoint Temperature Schedule Name
  {cfe8879c-1dc1-4ea6-ab14-b6f9b1f2bf30}; !- Cooling Setpoint Temperature Schedule Name

OS:Schedule:Compact,
  {9c80517c-8a24-48d5-ab5f-8028a4f756bc}, !- Handle
  HTGSETP_BulkStorage_SCH,                !- Name
  {7cea8359-ce52-414c-9c28-08eb97f3d96b}, !- Schedule Type Limits Name
  Through: 12/31,                         !- Field 1
  For: AllDays,                           !- Field 2
  Until: 24:00,                           !- Field 3
  7.2;                                    !- Field 4

OS:SubSurface,
  {1abdce25-2e61-45de-9d9d-0edd740cafcb}, !- Handle
  Office_Wall_West Door,                  !- Name
  Door,                                   !- Sub Surface Type
  {b09cca11-0b05-462c-996e-71b126111efc}, !- Construction Name
  {90a527fd-1b2f-4162-a650-665abe592c05}, !- Surface Name
  ,                                       !- Outside Boundary Condition Object
  ,                                       !- View Factor to Ground
  ,                                       !- Shading Control Name
  ,                                       !- Frame and Divider Name
  1,                                      !- Multiplier
  ,                                       !- Number of Vertices
  0, 5.029, 2.1335,                       !- X,Y,Z Vertex 1 {m}
  0, 5.029, 0,                            !- X,Y,Z Vertex 2 {m}
  0, 4.1146, 0,                           !- X,Y,Z Vertex 3 {m}
  0, 4.1146, 2.1335;                      !- X,Y,Z Vertex 4 {m}

OS:Construction,
  {b09cca11-0b05-462c-996e-71b126111efc}, !- Handle
  Swinging Door Semi-Cond,                !- Name
  ,                                       !- Surface Rendering Name
  {061197a3-1298-4e6a-aecb-9ed1e364d77a}; !- Layer 1

OS:Material:NoMass,
  {061197a3-1298-4e6a-aecb-9ed1e364d77a}, !- Handle
  Opaque Door panel Semi-Cond,            !- Name
  MediumRough,                            !- Roughness
  0.101897046243647,                      !- Thermal Resistance {m2-K/W}
  0.9,                                    !- Thermal Absorptance
  0.7,                                    !- Solar Absorptance
  0.7;                                    !- Visible Absorptance

OS:Surface,
  {90a527fd-1b2f-4162-a650-665abe592c05}, !- Handle
  Office_Wall_West,                       !- Name
  Wall,                                   !- Surface Type
  {9669cef1-beb4-4e86-b385-98ff1f84263f}, !- Construction Name
  {41e864da-8e38-40b3-b599-d957f9b49fd2}, !- Space Name
  Outdoors,                               !- Outside Boundary Condition
  ,                                       !- Outside Boundary Condition Object
  SunExposed,                             !- Sun Exposure
  WindExposed,                            !- Wind Exposure
  ,                                       !- View Factor to Ground
  ,                                       !- Number of Vertices
  0, 9.1435, 4.267,                       !- X,Y,Z Vertex 1 {m}
  0, 9.1435, 0,                           !- X,Y,Z Vertex 2 {m}
  0, 0, 0,                                !- X,Y,Z Vertex 3 {m}
  0, 0, 4.267;                            !- X,Y,Z Vertex 4 {m}

OS:Curve:Biquadratic,
  {6f2f2371-8e05-4316-a81a-b170a6bd5b35}, !- Handle
  Measured_CoolCStandard10Ton_EIRFT,      !- Name
  0.9847,                                 !- Coefficient1 Constant
  -0.04285,                               !- Coefficient2 x
  0.0013562,                              !- Coefficient3 x**2
  0.009934,                               !- Coefficient4 y
  0.0006398,                              !- Coefficient5 y**2
  -0.001169,                              !- Coefficient6 x*y
  11.1,                                   !- Minimum Value of x {BasedOnField A2}
  29.4,                                   !- Maximum Value of x {BasedOnField A2}
  10,                                     !- Minimum Value of y {BasedOnField A3}
  50.3;                                   !- Maximum Value of y {BasedOnField A3}

OS:Construction,
  {a4246b80-c015-47a7-ad00-7be4dfd4f115}, !- Handle
  ext-slab,                               !- Name
  ,                                       !- Surface Rendering Name
  {64bbcba6-544c-41b2-b6b9-1fe1cd7d2996}; !- Layer 1

OS:Material,
  {64bbcba6-544c-41b2-b6b9-1fe1cd7d2996}, !- Handle
  HW CONCRETE,                            !- Name
  Rough,                                  !- Roughness
  0.2032,                                 !- Thickness {m}
  1.311,                                  !- Conductivity {W/m-K}
  2240,                                   !- Density {kg/m3}
  836.8,                                  !- Specific Heat {J/kg-K}
  0.9,                                    !- Thermal Absorptance
  0.7,                                    !- Solar Absorptance
  0.7;                                    !- Visible Absorptance

OS:Lights:Definition,
  {61acc949-60df-434d-a31f-d79232efabd9}, !- Handle
  BulkStorage_Lights Definition,          !- Name
  Watts/Area,                             !- Design Level Calculation Method
  ,                                       !- Lighting Level {W}
  9.68,                                   !- Watts per Space Floor Area {W/m2}
  ,                                       !- Watts per Person {W/person}
  0.5,                                    !- Fraction Radiant
  0.2,                                    !- Fraction Visible
  0,                                      !- Return Air Fraction
  No;                                     !- Return Air Fraction Calculated from Plenum Temperature

OS:Lights,
  {e199f5ac-b86c-46a8-9939-8a145a03b12c}, !- Handle
  BulkStorage_Lights,                     !- Name
  {61acc949-60df-434d-a31f-d79232efabd9}, !- Lights Definition Name
  {6dea74bb-c6c2-478c-b1fa-0617a5934521}, !- Space or SpaceType Name
  {5cf1818f-fe37-43b9-950b-439575cc108c}, !- Schedule Name
  1,                                      !- Fraction Replaceable
  ,                                       !- Multiplier
  General;                                !- End-Use Subcategory

OS:Schedule:Compact,
  {5cf1818f-fe37-43b9-950b-439575cc108c}, !- Handle
  BLDG_LIGHT_SCH,                         !- Name
  {02575dd5-8bfa-4ee8-8ff7-1b1f13b60695}, !- Schedule Type Limits Name
  Through: 12/31,                         !- Field 1
  For: Weekdays,                          !- Field 2
  Until: 07:00,                           !- Field 3
  0.1,                                    !- Field 4
  Until: 08:00,                           !- Field 5
  0.4,                                    !- Field 6
  Until: 09:00,                           !- Field 7
  0.7,                                    !- Field 8
  Until: 12:00,                           !- Field 9
  0.9,                                    !- Field 10
  Until: 13:00,                           !- Field 11
  0.8,                                    !- Field 12
  Until: 17:00,                           !- Field 13
  0.9,                                    !- Field 14
  Until: 18:00,                           !- Field 15
  0.3,                                    !- Field 16
  Until: 24:00,                           !- Field 17
  0.1,                                    !- Field 18
  For: Saturday,                          !- Field 19
  Until: 08:00,                           !- Field 20
  0.1,                                    !- Field 21
  Until: 09:00,                           !- Field 22
  0.1,                                    !- Field 23
  Until: 12:00,                           !- Field 24
  0.24,                                   !- Field 25
  Until: 24:00,                           !- Field 26
  0.1,                                    !- Field 27
  For: SummerDesignDay,                   !- Field 28
  Until: 24:00,                           !- Field 29
  1.0,                                    !- Field 30
  For: WinterDesignDay,                   !- Field 31
  Until: 24:00,                           !- Field 32
  0.0,                                    !- Field 33
  For: Sunday Holidays AllOtherDays,      !- Field 34
  Until: 24:00,                           !- Field 35
  0.1;                                    !- Field 36

OS:ScheduleTypeLimits,
  {02575dd5-8bfa-4ee8-8ff7-1b1f13b60695}, !- Handle
  Fraction,                               !- Name
  0,                                      !- Lower Limit Value {BasedOnField A4}
  1,                                      !- Upper Limit Value {BasedOnField A4}
  CONTINUOUS;                             !- Numeric Type

OS:Schedule:Compact,
  {cc62920c-f316-4c9b-be9b-4b4aafa7f6c3}, !- Handle
  AIR_VELO_SCH,                           !- Name
  ,                                       !- Schedule Type Limits Name
  Through: 12/31,                         !- Field 1
  For: AllDays,                           !- Field 2
  Until: 24:00,                           !- Field 3
  0.2;                                    !- Field 4

OS:ScheduleTypeLimits,
  {ac804b31-7ad9-4c04-a00a-50ba5d851e67}, !- Handle
  {7e06727c-45fd-4db1-8637-314e25693ab4}; !- Name

OS:Material,
  {23d2b212-ea29-44a2-bb08-d016f2ba1634}, !- Handle
  8IN CONCRETE HW,                        !- Name
  Rough,                                  !- Roughness
  0.2032,                                 !- Thickness {m}
  1.311,                                  !- Conductivity {W/m-K}
  2240,                                   !- Density {kg/m3}
  836.8,                                  !- Specific Heat {J/kg-K}
  0.9,                                    !- Thermal Absorptance
  0.7,                                    !- Solar Absorptance
  0.7;                                    !- Visible Absorptance

OS:DesignSpecification:OutdoorAir,
  {9fe78368-8dcb-4626-8b00-c227b3df12ac}, !- Handle
  SZ DSOA Office,                         !- Name
  ,                                       !- Outdoor Air Method
  0.01,                                   !- Outdoor Air Flow per Person {m3/s-person}
  ,                                       !- Outdoor Air Flow per Floor Area {m3/s-m2}
  ,                                       !- Outdoor Air Flow Rate {m3/s}
  ,                                       !- Outdoor Air Flow Air Changes per Hour {1/hr}
  ;                                       !- Outdoor Air Flow Rate Fraction Schedule Name

OS:Material:NoMass,
  {86764d79-7410-469d-a74c-5f108fca2686}, !- Handle
  CP02 CARPET PAD,                        !- Name
  VeryRough,                              !- Roughness
  0.2165,                                 !- Thermal Resistance {m2-K/W}
  0.9,                                    !- Thermal Absorptance
  0.7,                                    !- Solar Absorptance
  0.8;                                    !- Visible Absorptance

OS:Material,
  {cf69e6bd-e170-434e-843e-8e5248719a5c}, !- Handle
  Metal Decking,                          !- Name
  MediumSmooth,                           !- Roughness
  0.0015,                                 !- Thickness {m}
  45.006,                                 !- Conductivity {W/m-K}
  7680,                                   !- Density {kg/m3}
  418.4,                                  !- Specific Heat {J/kg-K}
  0.9,                                    !- Thermal Absorptance
  0.7,                                    !- Solar Absorptance
  0.3;                                    !- Visible Absorptance

OS:Meter,
  {e49446cc-d3f1-4853-96a2-fcc0fe33574f}, !- Handle
  InteriorEquipment:Gas,                  !- Name
  hourly,                                 !- Reporting Frequency
  False,                                  !- Meter File Only
  False;                                  !- Cumulative

OS:InternalMass:Definition,
  {494232d5-ce3c-40f4-90be-b632e2dbf5b1}, !- Handle
  BulkStorage Internal Mass Definition,   !- Name
  {aef7eb07-7b4a-4c62-8a90-87e48ee8724a}, !- Construction Name
  SurfaceArea,                            !- Design Level Calculation Method
  6409.6813,                              !- Surface Area {m2}
  ,                                       !- Surface Area per Space Floor Area {dimensionless}
  ;                                       !- Surface Area per Person {m2/person}

OS:Construction,
  {aef7eb07-7b4a-4c62-8a90-87e48ee8724a}, !- Handle
  InteriorFurnishings,                    !- Name
  ,                                       !- Surface Rendering Name