
OS:Version,
  {073a4440-ebc5-47aa-b4d6-cd99bb3bd797}, !- Handle
  1.8.5;                                  !- Version Identifier

OS:Site,
  {7b01e357-8549-4e29-80f2-14841c2b7e3e}, !- Handle
  USA IL-CHICAGO-OHARE,                   !- Name
  41.77,                                  !- Latitude {deg}
  -87.75,                                 !- Longitude {deg}
  -6,                                     !- Time Zone {hr}
  190,                                    !- Elevation {m}
  City;                                   !- Terrain

OS:SimulationControl,
  {3835eb69-4ce9-472d-8f26-39d86d826d5e}, !- Handle
  Yes,                                    !- Do Zone Sizing Calculation
  Yes,                                    !- Do System Sizing Calculation
  Yes,                                    !- Do Plant Sizing Calculation
  No,                                     !- Run Simulation for Sizing Periods
  Yes,                                    !- Run Simulation for Weather File Run Periods
  0.04,                                   !- Loads Convergence Tolerance Value
  0.2,                                    !- Temperature Convergence Tolerance Value {deltaC}
  FullInteriorAndExterior,                !- Solar Distribution
  40,                                     !- Maximum Number of Warmup Days
  6;                                      !- Minimum Number of Warmup Days

OS:WindowMaterial:SimpleGlazingSystem,
  {f661bbbe-fc91-4771-9a01-985bb5a60593}, !- Handle
  Semi-Cond Fixed Assembly Window,        !- Name
  6.92716,                                !- U-Factor {W/m2-K}
  0.7;                                    !- Solar Heat Gain Coefficient

OS:SubSurface,
  {a12aa969-857d-400a-b231-965f3d17794e}, !- Handle
  BulkStorage_Wall_West_OHDoor_4,         !- Name
  Door,                                   !- Sub Surface Type
  {78a676ba-cadd-4b05-9334-dac09c2b03b3}, !- Construction Name
  {6d77ae1d-419c-47e7-8f1a-be3e8b0d1680}, !- Surface Name
  ,                                       !- Outside Boundary Condition Object
  ,                                       !- View Factor to Ground
  ,                                       !- Shading Control Name
  ,                                       !- Frame and Divider Name
  1,                                      !- Multiplier
  ,                                       !- Number of Vertices
  0, 66.7479, 3.0478,                     !- X,Y,Z Vertex 1 {m}
  0, 66.7479, 0,                          !- X,Y,Z Vertex 2 {m}
  0, 64.3097, 0,                          !- X,Y,Z Vertex 3 {m}
  0, 64.3097, 3.0478;                     !- X,Y,Z Vertex 4 {m}

OS:Construction,
  {78a676ba-cadd-4b05-9334-dac09c2b03b3}, !- Handle
  Overhead Door Semi-Cond,                !- Name
  ,                                       !- Surface Rendering Name
  {807e4ca7-ec03-406d-95c3-6247c51d3191}; !- Layer 1

OS:Material:NoMass,
  {807e4ca7-ec03-406d-95c3-6247c51d3191}, !- Handle
  Std Overhead Door Panel Semi-Cond,      !- Name
  MediumRough,                            !- Roughness
  0.001,                                  !- Thermal Resistance {m2-K/W}
  0.9,                                    !- Thermal Absorptance
  0.7,                                    !- Solar Absorptance
  0.7;                                    !- Visible Absorptance

OS:Surface,
  {6d77ae1d-419c-47e7-8f1a-be3e8b0d1680}, !- Handle
  BulkStorage_Wall_West,                  !- Name
  Wall,                                   !- Surface Type
  {c0271026-e1de-4649-ab55-2d184f02453f}, !- Construction Name
  {011b85bb-0e8c-4fe9-9158-fa1077e7f556}, !- Space Name
  Outdoors,                               !- Outside Boundary Condition
  ,                                       !- Outside Boundary Condition Object
  SunExposed,                             !- Sun Exposure
  WindExposed,                            !- Wind Exposure
  ,                                       !- View Factor to Ground
  ,                                       !- Number of Vertices
  0, 100.579, 8.534,                      !- X,Y,Z Vertex 1 {m}
  0, 100.579, 0,                          !- X,Y,Z Vertex 2 {m}
  0, 30.4785, 0,                          !- X,Y,Z Vertex 3 {m}
  0, 30.4785, 8.534;                      !- X,Y,Z Vertex 4 {m}

OS:Construction,
  {c0271026-e1de-4649-ab55-2d184f02453f}, !- Handle
  Metal Bldg Semi-Cond Ext Wall,          !- Name
  ,                                       !- Surface Rendering Name
  {69e0e290-d76d-43b5-8ac2-41511804cb80}, !- Layer 1
  {32092530-fc72-4c46-b2ca-8e6b05378b8d}, !- Layer 2
  {b9c844c5-239a-4721-b70a-dd63e4063711}; !- Layer 3

OS:Material,
  {69e0e290-d76d-43b5-8ac2-41511804cb80}, !- Handle
  Metal Siding,                           !- Name
  Smooth,                                 !- Roughness
  0.0015,                                 !- Thickness {m}
  44.96,                                  !- Conductivity {W/m-K}
  7688.86,                                !- Density {kg/m3}
  410,                                    !- Specific Heat {J/kg-K}
  0.9,                                    !- Thermal Absorptance
  0.2,                                    !- Solar Absorptance
  0.2;                                    !- Visible Absorptance

OS:Material,
  {32092530-fc72-4c46-b2ca-8e6b05378b8d}, !- Handle
  Metal Building Semi-Cond Wall Insulation, !- Name
  MediumRough,                            !- Roughness
  0.0495494599433393,                     !- Thickness {m}
  0.049,                                  !- Conductivity {W/m-K}
  265,                                    !- Density {kg/m3}
  836.8,                                  !- Specific Heat {J/kg-K}
  0.9,                                    !- Thermal Absorptance
  0.7,                                    !- Solar Absorptance
  0.7;                                    !- Visible Absorptance

OS:Material,
  {b9c844c5-239a-4721-b70a-dd63e4063711}, !- Handle
  1/2IN Gypsum,                           !- Name
  Smooth,                                 !- Roughness
  0.0127,                                 !- Thickness {m}
  0.16,                                   !- Conductivity {W/m-K}
  784.9,                                  !- Density {kg/m3}
  830,                                    !- Specific Heat {J/kg-K}
  0.9,                                    !- Thermal Absorptance
  0.92,                                   !- Solar Absorptance
  0.92;                                   !- Visible Absorptance

OS:Space,
  {011b85bb-0e8c-4fe9-9158-fa1077e7f556}, !- Handle
  BulkStorage,                            !- Name
  {be8110f9-3192-4075-b787-dbdd88e85865}, !- Space Type Name
  ,                                       !- Default Construction Set Name
  ,                                       !- Default Schedule Set Name
  0,                                      !- Direction of Relative North {deg}
  0,                                      !- X Origin {m}
  0,                                      !- Y Origin {m}
  0,                                      !- Z Origin {m}
  {7fd92083-f006-40cf-ae3c-749b7372b318}, !- Building Story Name
  {9c80f1e9-37e9-4a4b-8725-0edf946dcf19}, !- Thermal Zone Name
  Yes,                                    !- Part of Total Floor Area
  {5821904c-548b-4bae-8625-812810728d70}; !- Design Specification Outdoor Air Object Name

OS:ThermostatSetpoint:DualSetpoint,
  {d90a191d-c493-411b-b0d5-56a5d54e934d}, !- Handle
  {852ebe9e-979d-4e48-b3aa-026187bce400}, !- Name
  {3c88ea69-8221-49a5-890e-3a021a986e2f}, !- Heating Setpoint Temperature Schedule Name
  {9f19e648-b124-4637-abab-689e9998e6ff}; !- Cooling Setpoint Temperature Schedule Name

OS:Schedule:Compact,
  {3c88ea69-8221-49a5-890e-3a021a986e2f}, !- Handle
  HTGSETP_BulkStorage_SCH,                !- Name
  {3834afbb-c1b1-4980-a55c-3af62657d5fd}, !- Schedule Type Limits Name
  Through: 12/31,                         !- Field 1
  For: AllDays,                           !- Field 2
  Until: 24:00,                           !- Field 3
  7.2;                                    !- Field 4

OS:ScheduleTypeLimits,
  {3834afbb-c1b1-4980-a55c-3af62657d5fd}, !- Handle
  Temperature,                            !- Name
  -60,                                    !- Lower Limit Value {BasedOnField A4}
  200,                                    !- Upper Limit Value {BasedOnField A4}
  CONTINUOUS,                             !- Numeric Type
  Temperature;                            !- Unit Type

OS:Schedule:Compact,
  {9f19e648-b124-4637-abab-689e9998e6ff}, !- Handle
  CLGSETP_SCH,                            !- Name
  {3834afbb-c1b1-4980-a55c-3af62657d5fd}, !- Schedule Type Limits Name
  Through: 12/31,                         !- Field 1
  For: Weekdays SummerDesignDay,          !- Field 2
  Until: 07:00,                           !- Field 3
  30.0,                                   !- Field 4
  Until: 17:00,                           !- Field 5
  24.0,                                   !- Field 6
  Until: 24:00,                           !- Field 7
  30.0,                                   !- Field 8
  For: Saturday,                          !- Field 9
  Until: 08:00,                           !- Field 10
  30.0,                                   !- Field 11
  Until: 16:00,                           !- Field 12
  24.0,                                   !- Field 13
  Until: 24:00,                           !- Field 14
  30.0,                                   !- Field 15
  For: AllOtherDays,                      !- Field 16
  Until: 24:00,                           !- Field 17
  30.0;                                   !- Field 18

OS:SubSurface,
  {9791b0df-e758-4356-b530-ad73e1e8a391}, !- Handle
  Office_Wall_South_Door_1,               !- Name
  Door,                                   !- Sub Surface Type
  {c928fe57-73d6-4e82-8d47-377011522554}, !- Construction Name
  {e42c6a6c-8ebc-4189-866a-27bec5db0f21}, !- Surface Name
  ,                                       !- Outside Boundary Condition Object
  ,                                       !- View Factor to Ground
  ,                                       !- Shading Control Name
  ,                                       !- Frame and Divider Name
  1,                                      !- Multiplier
  ,                                       !- Number of Vertices
  12.039, 0, 2.1335,                      !- X,Y,Z Vertex 1 {m}
  12.039, 0, 0,                           !- X,Y,Z Vertex 2 {m}
  13.868, 0, 0,                           !- X,Y,Z Vertex 3 {m}
  13.868, 0, 2.1335;                      !- X,Y,Z Vertex 4 {m}

OS:Construction,
  {c928fe57-73d6-4e82-8d47-377011522554}, !- Handle
  Swinging Door Semi-Cond,                !- Name
  ,                                       !- Surface Rendering Name
  {ce05479f-a06e-44cf-aa90-db09c724ab6f}; !- Layer 1

OS:Material:NoMass,
  {ce05479f-a06e-44cf-aa90-db09c724ab6f}, !- Handle
  Opaque Door panel Semi-Cond,            !- Name
  MediumRough,                            !- Roughness
  0.101897046243647,                      !- Thermal Resistance {m2-K/W}
  0.9,                                    !- Thermal Absorptance
  0.7,                                    !- Solar Absorptance
  0.7;                                    !- Visible Absorptance

OS:Surface,
  {e42c6a6c-8ebc-4189-866a-27bec5db0f21}, !- Handle
  Office_Wall_South,                      !- Name
  Wall,                                   !- Surface Type
  {c0271026-e1de-4649-ab55-2d184f02453f}, !- Construction Name
  {c7599e08-dd05-440c-9a37-a60b5c347f86}, !- Space Name
  Outdoors,                               !- Outside Boundary Condition
  ,                                       !- Outside Boundary Condition Object
  SunExposed,                             !- Sun Exposure
  WindExposed,                            !- Wind Exposure
  ,                                       !- View Factor to Ground
  ,                                       !- Number of Vertices
  0, 0, 4.267,                            !- X,Y,Z Vertex 1 {m}
  0, 0, 0,                                !- X,Y,Z Vertex 2 {m}
  25.9067, 0, 0,                          !- X,Y,Z Vertex 3 {m}
  25.9067, 0, 4.267;                      !- X,Y,Z Vertex 4 {m}

OS:Space,
  {c7599e08-dd05-440c-9a37-a60b5c347f86}, !- Handle
  Office,                                 !- Name
  {988ffa78-f221-4f8f-8129-306083a56432}, !- Space Type Name
  ,                                       !- Default Construction Set Name
  ,                                       !- Default Schedule Set Name
  0,                                      !- Direction of Relative North {deg}
  0,                                      !- X Origin {m}
  0,                                      !- Y Origin {m}
  0,                                      !- Z Origin {m}
  {7fd92083-f006-40cf-ae3c-749b7372b318}, !- Building Story Name
  {0e3b56a8-1ec4-4fe0-a55e-f794a5e2f974}, !- Thermal Zone Name
  Yes,                                    !- Part of Total Floor Area
  {6e630b7b-ad20-4a5a-835e-cbadcec27c77}; !- Design Specification Outdoor Air Object Name

OS:ThermostatSetpoint:DualSetpoint,
  {6f46ba7a-5300-4660-b8c0-bf417a8b8451}, !- Handle
  {c90d3b92-bd4c-4d5f-8907-7e6f20998c9f}, !- Name
  {c11169ea-3e99-4385-9252-55db17a8d38b}, !- Heating Setpoint Temperature Schedule Name
  {9f19e648-b124-4637-abab-689e9998e6ff}; !- Cooling Setpoint Temperature Schedule Name

OS:Schedule:Compact,
  {c11169ea-3e99-4385-9252-55db17a8d38b}, !- Handle
  HTGSETP_SCH,                            !- Name
  {3834afbb-c1b1-4980-a55c-3af62657d5fd}, !- Schedule Type Limits Name
  Through: 12/31,                         !- Field 1
  For: Weekdays,                          !- Field 2
  Until: 06:00,                           !- Field 3
  15.5,                                   !- Field 4
  Until: 17:00,                           !- Field 5
  21.0,                                   !- Field 6
  Until: 24:00,                           !- Field 7
  15.5,                                   !- Field 8
  For WinterDesignDay,                    !- Field 9
  Until: 24:00,                           !- Field 10
  21.0,                                   !- Field 11
  For: Saturday,                          !- Field 12
  Until: 07:00,                           !- Field 13
  15.5,                                   !- Field 14
  Until: 16:00,                           !- Field 15
  21.0,                                   !- Field 16
  Until: 24:00,                           !- Field 17
  15.5,                                   !- Field 18
  For: AllOtherDays,                      !- Field 19
  Until: 24:00,                           !- Field 20
  15.5;                                   !- Field 21

OS:Material:NoMass,
  {428ec42c-0c24-4cf5-931d-0fad159a114e}, !- Handle
  MAT-AIR-WALL,                           !- Name
  Rough,                                  !- Roughness
  0.2079491,                              !- Thermal Resistance {m2-K/W}
  0.9,                                    !- Thermal Absorptance
  0.7;                                    !- Solar Absorptance

OS:Schedule:Compact,
  {5f964b6e-bede-4bf0-b3e6-64cfdf1e4350}, !- Handle
  MinOA_Sched,                            !- Name
  {15d0c529-7d91-4697-9c62-a45607cc128e}, !- Schedule Type Limits Name
  Through: 12/31,                         !- Field 1
  For: Weekdays SummerDesignDay,          !- Field 2
  Until: 06:00,                           !- Field 3
  0.0,                                    !- Field 4
  Until: 17:00,                           !- Field 5
  1.0,                                    !- Field 6
  Until: 24:00,                           !- Field 7
  0.0,                                    !- Field 8
  For: Saturday WinterDesignDay,          !- Field 9
  Until: 07:00,                           !- Field 10
  0.0,                                    !- Field 11
  Until: 16:00,                           !- Field 12
  1.0,                                    !- Field 13
  Until: 24:00,                           !- Field 14
  0.0,                                    !- Field 15
  For: AllOtherDays,                      !- Field 16
  Until: 24:00,                           !- Field 17
  0.0;                                    !- Field 18

OS:ScheduleTypeLimits,
  {15d0c529-7d91-4697-9c62-a45607cc128e}, !- Handle
  Fraction,                               !- Name
  0,                                      !- Lower Limit Value {BasedOnField A4}
  1,                                      !- Upper Limit Value {BasedOnField A4}
  CONTINUOUS;                             !- Numeric Type

OS:People:Definition,
  {3ba35da0-62b5-44a2-9b53-5162b67a2314}, !- Handle
  Office People Definition,               !- Name
  People,                                 !- Number of People Calculation Method
  5,                                      !- Number of People {people}
  ,                                       !- People per Space Floor Area {person/m2}
  ,                                       !- Space Floor Area per Person {m2/person}
  0.3,                                    !- Fraction Radiant
  ,                                       !- Sensible Heat Fraction
  ,                                       !- Carbon Dioxide Generation Rate {m3/s-W}
  No,                                     !- Enable ASHRAE 55 Comfort Warnings
  ZoneAveraged;                           !- Mean Radiant Temperature Calculation Type

OS:People,
  {84f18fe5-4249-4e9f-930c-8580ad752c0c}, !- Handle
  Office People,                          !- Name
  {3ba35da0-62b5-44a2-9b53-5162b67a2314}, !- People Definition Name
  {c7599e08-dd05-440c-9a37-a60b5c347f86}, !- Space or SpaceType Name
  {f3755ad8-9ce1-4897-b663-cb6e4e2cfd6e}, !- Number of People Schedule Name
  {3cb95022-f7ae-4d4b-95a5-c1842b150adf}, !- Activity Level Schedule Name
  ,                                       !- Surface Name/Angle Factor List Name
  {4cbf8c00-2202-433c-8605-a72d3e350bdf}; !- Work Efficiency Schedule Name

OS:Schedule:Compact,
  {f3755ad8-9ce1-4897-b663-cb6e4e2cfd6e}, !- Handle
  BLDG_OCC_SCH,                           !- Name
  {15d0c529-7d91-4697-9c62-a45607cc128e}, !- Schedule Type Limits Name
  Through: 12/31,                         !- Field 1
  For: Weekdays,                          !- Field 2
  Until: 07:00,                           !- Field 3
  0.0,                                    !- Field 4
  Until: 08:00,                           !- Field 5
  0.15,                                   !- Field 6
  Until: 09:00,                           !- Field 7
  0.7,                                    !- Field 8
  Until: 12:00,                           !- Field 9
  0.9,                                    !- Field 10
  Until: 13:00,                           !- Field 11
  0.5,                                    !- Field 12
  Until: 16:00,                           !- Field 13
  0.85,                                   !- Field 14
  Until: 17:00,                           !- Field 15
  0.2,                                    !- Field 16
  Until: 24:00,                           !- Field 17
  0.0,                                    !- Field 18
  For: SummerDesignDay,                   !- Field 19
  Until: 24:00,                           !- Field 20
  1.0,                                    !- Field 21
  For: Saturday,                          !- Field 22
  Until: 08:00,                           !- Field 23
  0.0,                                    !- Field 24
  Until: 12:00,                           !- Field 25
  0.2,                                    !- Field 26
  Until: 16:00,                           !- Field 27
  0.1,                                    !- Field 28
  Until: 24:00,                           !- Field 29
  0.0,                                    !- Field 30
  For: WinterDesignDay,                   !- Field 31
  Until: 24:00,                           !- Field 32
  0.0,                                    !- Field 33
  For: Sunday Holidays AllOtherDays,      !- Field 34
  Until: 24:00,                           !- Field 35
  0.0;                                    !- Field 36

OS:Schedule:Compact,
  {3cb95022-f7ae-4d4b-95a5-c1842b150adf}, !- Handle
  ACTIVITY_SCH,                           !- Name
  {6ad543fb-f8be-4eb9-b21a-a22ea9c20c06}, !- Schedule Type Limits Name
  Through: 12/31,                         !- Field 1
  For: AllDays,                           !- Field 2
  Until: 24:00,                           !- Field 3
  120.;                                   !- Field 4

OS:ScheduleTypeLimits,
  {431d5d9a-0502-4698-b3cc-62aa61699625}, !- Handle
  {3bea8776-b59c-480a-b6f3-aa16421b1967}; !- Name

OS:ScheduleTypeLimits,
  {6ad543fb-f8be-4eb9-b21a-a22ea9c20c06}, !- Handle
  ActivityLevel,                          !- Name
  0,                                      !- Lower Limit Value {BasedOnField A4}
  ,                                       !- Upper Limit Value {BasedOnField A4}
  Continuous,                             !- Numeric Type
  ActivityLevel;                          !- Unit Type

OS:Schedule:Compact,
  {4cbf8c00-2202-433c-8605-a72d3e350bdf}, !- Handle
  WORK_EFF_SCH,                           !- Name
  {15d0c529-7d91-4697-9c62-a45607cc128e}, !- Schedule Type Limits Name
  Through: 12/31,                         !- Field 1
  For: AllDays,                           !- Field 2
  Until: 24:00,                           !- Field 3
  0.0;                                    !- Field 4

OS:Meter,
  {b1b946ee-e1ce-47a7-af58-7355a5526d1f}, !- Handle
  Cooling:Electricity,                    !- Name
  hourly,                                 !- Reporting Frequency
  False,                                  !- Meter File Only
  False;                                  !- Cumulative

OS:Surface,
  {73198421-cc77-45c4-a1b1-6df8aea93a95}, !- Handle
  FineStorage_Wall_North,                 !- Name
  Wall,                                   !- Surface Type
  {12bc9ed9-5846-41a1-851b-87b83de2da9f}, !- Construction Name
  {61665810-e088-4616-a303-d6de9a63afaf}, !- Space Name
  Outdoors,                               !- Outside Boundary Condition
  ,                                       !- Outside Boundary Condition Object
  SunExposed,                             !- Sun Exposure
  WindExposed,                            !- Wind Exposure
  ,                                       !- View Factor to Ground
  ,                                       !- Number of Vertices
  45.7178, 30.4785, 8.534,                !- X,Y,Z Vertex 1 {m}
  45.7178, 30.4785, 0,                    !- X,Y,Z Vertex 2 {m}
  0, 30.4785, 0,                          !- X,Y,Z Vertex 3 {m}
  0, 30.4785, 8.534;                      !- X,Y,Z Vertex 4 {m}

OS:Construction,
  {12bc9ed9-5846-41a1-851b-87b83de2da9f}, !- Handle
  int-walls,                              !- Name
  ,                                       !- Surface Rendering Name
  {b9c844c5-239a-4721-b70a-dd63e4063711}, !- Layer 1
  {b9c844c5-239a-4721-b70a-dd63e4063711}; !- Layer 2

OS:Space,
  {61665810-e088-4616-a303-d6de9a63afaf}, !- Handle
  FineStorage,                            !- Name
  {02991791-cfc6-461f-8da2-2d9dd879e324}, !- Space Type Name
  ,                                       !- Default Construction Set Name
  ,                                       !- Default Schedule Set Name
  0,                                      !- Direction of Relative North {deg}
  0,                                      !- X Origin {m}
  0,                                      !- Y Origin {m}
  0,                                      !- Z Origin {m}
  {7fd92083-f006-40cf-ae3c-749b7372b318}, !- Building Story Name
  {0e3b56a8-1ec4-4fe0-a55e-f794a5e2f974}, !- Thermal Zone Name
  Yes,                                    !- Part of Total Floor Area
  {dfcb36f7-bddc-4710-ad17-d6a217020513}; !- Design Specification Outdoor Air Object Name

OS:ThermostatSetpoint:DualSetpoint,
  {0042ac18-fc68-442b-a5f3-570957aa750e}, !- Handle
  {84764dc6-84ae-4768-a9c0-94a3f31e1126}, !- Name
  {da053d80-6cca-4970-83d4-8245ae4c3898}, !- Heating Setpoint Temperature Schedule Name
  {2164c038-8050-41b0-ba57-66087a34f414}; !- Cooling Setpoint Temperature Schedule Name

OS:Schedule:Compact,
  {da053d80-6cca-4970-83d4-8245ae4c3898}, !- Handle
  HTGSETP_FineStorage_SCH,                !- Name
  {3834afbb-c1b1-4980-a55c-3af62657d5fd}, !- Schedule Type Limits Name
  Through: 12/31,                         !- Field 1
  For: AllDays,                           !- Field 2
  Until: 24:00,                           !- Field 3
  15.6;                                   !- Field 4

OS:Schedule:Compact,
  {2164c038-8050-41b0-ba57-66087a34f414}, !- Handle
  CLGSETP_FineStorage_SCH,                !- Name
  {3834afbb-c1b1-4980-a55c-3af62657d5fd}, !- Schedule Type Limits Name
  Through: 12/31,                         !- Field 1
  For: AllDays,                           !- Field 2
  Until: 24:00,                           !- Field 3
  26.7;                                   !- Field 4

OS:Schedule:Compact,
  {17980b7c-6ce2-4369-8823-5bcae1c1aa62}, !- Handle
  BLDG_LIGHT_SCH,                         !- Name
  {15d0c529-7d91-4697-9c62-a45607cc128e}, !- Schedule Type Limits Name
  Through: 12/31,                         !- Field 1
  For: Weekdays,                          !- Field 2
  Until: 07:00,                           !- Field 3
  0.1,                                    !- Field 4
  Until: 08:00,                           !- Field 5
  0.4,                                    !- Field 6
  Until: 09:00,                           !- Field 7
  0.7,                                    !- Field 8
  Until: 12:00,                           !- Field 9
  0.9,                                    !- Field 10
  Until: 13:00,                           !- Field 11
  0.8,                                    !- Field 12
  Until: 17:00,                           !- Field 13
  0.9,                                    !- Field 14
  Until: 18:00,                           !- Field 15
  0.3,                                    !- Field 16
  Until: 24:00,                           !- Field 17
  0.1,                                    !- Field 18
  For: Saturday,                          !- Field 19
  Until: 08:00,                           !- Field 20
  0.1,                                    !- Field 21
  Until: 09:00,                           !- Field 22
  0.1,                                    !- Field 23
  Until: 12:00,                           !- Field 24
  0.24,                                   !- Field 25
  Until: 24:00,                           !- Field 26
  0.1,                                    !- Field 27
  For: SummerDesignDay,                   !- Field 28
  Until: 24:00,                           !- Field 29
  1.0,                                    !- Field 30
  For: WinterDesignDay,                   !- Field 31
  Until: 24:00,                           !- Field 32
  0.0,                                    !- Field 33
  For: Sunday Holidays AllOtherDays,      !- Field 34
  Until: 24:00,                           !- Field 35
  0.1;                                    !- Field 36

OS:Construction,
  {bcf6cebd-6bd0-4fcf-bc43-a23d91c31629}, !- Handle
  ext-slab,                               !- Name
  ,                                       !- Surface Rendering Name
  {37949db9-39d9-41a0-bb88-16b4b5ef79d0}; !- Layer 1

OS:Material,
  {37949db9-39d9-41a0-bb88-16b4b5ef79d0}, !- Handle
  HW CONCRETE,                            !- Name
  Rough,                                  !- Roughness
  0.2032,                                 !- Thickness {m}
  1.311,                                  !- Conductivity {W/m-K}
  2240,                                   !- Density {kg/m3}
  836.8,                                  !- Specific Heat {J/kg-K}
  0.9,                                    !- Thermal Absorptance
  0.7,                                    !- Solar Absorptance
  0.7;                                    !- Visible Absorptance

OS:SubSurface,
  {8fb8b41f-b38e-4e27-86a1-a3165616b703}, !- Handle
  BulkStorage_Wall_East_Door_2,           !- Name
  Door,                                   !- Sub Surface Type
  {c928fe57-73d6-4e82-8d47-377011522554}, !- Construction Name
  {337bbc77-691d-4846-b642-51616d0692b7}, !- Surface Name
  ,                                       !- Outside Boundary Condition Object
  ,                                       !- View Factor to Ground
  ,                                       !- Shading Control Name
  ,                                       !- Frame and Divider Name
  1,                                      !- Multiplier
  ,                                       !- Number of Vertices
  45.718, 65.0716, 2.1335,                !- X,Y,Z Vertex 1 {m}
  45.718, 65.0716, 0,                     !- X,Y,Z Vertex 2 {m}
  45.718, 65.986, 0,                      !- X,Y,Z Vertex 3 {m}
  45.718, 65.986, 2.1335;                 !- X,Y,Z Vertex 4 {m}

OS:Surface,
  {337bbc77-691d-4846-b642-51616d0692b7}, !- Handle
  BulkStorage_Wall_East,                  !- Name
  Wall,                                   !- Surface Type
  {c0271026-e1de-4649-ab55-2d184f02453f}, !- Construction Name
  {011b85bb-0e8c-4fe9-9158-fa1077e7f556}, !- Space Name
  Outdoors,                               !- Outside Boundary Condition
  ,                                       !- Outside Boundary Condition Object
  SunExposed,                             !- Sun Exposure
  WindExposed,                            !- Wind Exposure
  ,                                       !- View Factor to Ground
  ,                                       !- Number of Vertices
  45.7178, 30.4785, 8.534,                !- X,Y,Z Vertex 1 {m}
  45.7178, 30.4785, 0,                    !- X,Y,Z Vertex 2 {m}
  45.7178, 100.579, 0,                    !- X,Y,Z Vertex 3 {m}
  45.7178, 100.579, 8.534;                !- X,Y,Z Vertex 4 {m}

OS:Lights:Definition,
  {82b7bf5e-a8de-481e-a2dc-c2b9a5440b4e}, !- Handle
  FineStorage_Lights Definition,          !- Name