
OS:Version,
  {4f8342c2-c15a-460e-97ff-2653f7b56065}, !- Handle
  1.8.5;                                  !- Version Identifier

OS:Site,
  {80fd4ed9-0905-4f24-bfb2-23ec06d38b40}, !- Handle
  USA IL-CHICAGO-OHARE,                   !- Name
  41.77,                                  !- Latitude {deg}
  -87.75,                                 !- Longitude {deg}
  -6,                                     !- Time Zone {hr}
  190,                                    !- Elevation {m}
  City;                                   !- Terrain

OS:SimulationControl,
  {4bc7160a-8eb4-4537-b3ae-f99de6d4d39e}, !- Handle
  Yes,                                    !- Do Zone Sizing Calculation
  Yes,                                    !- Do System Sizing Calculation
  Yes,                                    !- Do Plant Sizing Calculation
  No,                                     !- Run Simulation for Sizing Periods
  Yes,                                    !- Run Simulation for Weather File Run Periods
  0.04,                                   !- Loads Convergence Tolerance Value
  0.2,                                    !- Temperature Convergence Tolerance Value {deltaC}
  FullInteriorAndExterior,                !- Solar Distribution
  40,                                     !- Maximum Number of Warmup Days
  6;                                      !- Minimum Number of Warmup Days

OS:Material,
  {23684513-21ee-4151-ad5a-408d08d68f36}, !- Handle
  HW CONCRETE,                            !- Name
  Rough,                                  !- Roughness
  0.2032,                                 !- Thickness {m}
  1.311,                                  !- Conductivity {W/m-K}
  2240,                                   !- Density {kg/m3}
  836.8,                                  !- Specific Heat {J/kg-K}
  0.9,                                    !- Thermal Absorptance
  0.7,                                    !- Solar Absorptance
  0.7;                                    !- Visible Absorptance

OS:Curve:Quadratic,
  {60cdbd43-4f5f-4505-956a-ae08d0d8174b}, !- Handle
  Measured_CoolCStandard10Ton_CapFF,      !- Name
  0.7685,                                 !- Coefficient1 Constant
  0.2315,                                 !- Coefficient2 x
  0,                                      !- Coefficient3 x**2
  0.776,                                  !- Minimum Value of x {BasedOnField A2}
  1.197;                                  !- Maximum Value of x {BasedOnField A2}

OS:Sizing:Parameters,
  {5665b018-f76c-4558-a142-49a37bc56531}, !- Handle
  1.2,                                    !- Heating Sizing Factor
  1.2,                                    !- Cooling Sizing Factor
  6;                                      !- Timesteps in Averaging Window

OS:ScheduleTypeLimits,
  {88bd2ddf-1a9a-4283-ad85-4bff4bec961f}, !- Handle
  {9b71c8bf-3c4b-4db0-8ddf-e19fa499b909}; !- Name

OS:Schedule:Compact,
  {54648388-e9bc-4922-be60-1100879bb654}, !- Handle
  CLGSETP_SCH,                            !- Name
  {a1a7f255-ad1e-48b6-b5b3-590ec198bcc6}, !- Schedule Type Limits Name
  Through: 12/31,                         !- Field 1
  For: Weekdays SummerDesignDay,          !- Field 2
  Until: 07:00,                           !- Field 3
  30.0,                                   !- Field 4
  Until: 17:00,                           !- Field 5
  24.0,                                   !- Field 6
  Until: 24:00,                           !- Field 7
  30.0,                                   !- Field 8
  For: Saturday,                          !- Field 9
  Until: 08:00,                           !- Field 10
  30.0,                                   !- Field 11
  Until: 16:00,                           !- Field 12
  24.0,                                   !- Field 13
  Until: 24:00,                           !- Field 14
  30.0,                                   !- Field 15
  For: AllOtherDays,                      !- Field 16
  Until: 24:00,                           !- Field 17
  30.0;                                   !- Field 18

OS:ScheduleTypeLimits,
  {a1a7f255-ad1e-48b6-b5b3-590ec198bcc6}, !- Handle
  Temperature,                            !- Name
  -60,                                    !- Lower Limit Value {BasedOnField A4}
  200,                                    !- Upper Limit Value {BasedOnField A4}
  CONTINUOUS,                             !- Numeric Type
  Temperature;                            !- Unit Type

OS:SubSurface,
  {6b5172d0-a3b2-422c-92f2-011153522170}, !- Handle
  BulkStorage_Wall_West_OHDoor_5,         !- Name
  Door,                                   !- Sub Surface Type
  {d31e2f53-d4e1-401b-a787-40348e7fa8f4}, !- Construction Name
  {3a1367bf-8aed-4130-9f4e-fa29e976fc98}, !- Surface Name
  ,                                       !- Outside Boundary Condition Object
  ,                                       !- View Factor to Ground
  ,                                       !- Shading Control Name
  ,                                       !- Frame and Divider Name
  1,                                      !- Multiplier
  ,                                       !- Number of Vertices
  0, 57.6806, 3.0478,                     !- X,Y,Z Vertex 1 {m}
  0, 57.6806, 0,                          !- X,Y,Z Vertex 2 {m}
  0, 55.2423, 0,                          !- X,Y,Z Vertex 3 {m}
  0, 55.2423, 3.0478;                     !- X,Y,Z Vertex 4 {m}

OS:Construction,
  {d31e2f53-d4e1-401b-a787-40348e7fa8f4}, !- Handle
  Overhead Door Semi-Cond,                !- Name
  ,                                       !- Surface Rendering Name
  {cc0d0aec-5acb-4917-929f-de30a7f278dc}; !- Layer 1

OS:Material:NoMass,
  {cc0d0aec-5acb-4917-929f-de30a7f278dc}, !- Handle
  Std Overhead Door Panel Semi-Cond,      !- Name
  MediumRough,                            !- Roughness
  0.001,                                  !- Thermal Resistance {m2-K/W}
  0.9,                                    !- Thermal Absorptance
  0.7,                                    !- Solar Absorptance
  0.7;                                    !- Visible Absorptance

OS:Surface,
  {3a1367bf-8aed-4130-9f4e-fa29e976fc98}, !- Handle
  BulkStorage_Wall_West,                  !- Name
  Wall,                                   !- Surface Type
  {0d0e6ca7-6fe1-4a46-9e5c-92bd69bf29e7}, !- Construction Name
  {fc1ee278-19b5-4549-8d7b-d646334d0d07}, !- Space Name
  Outdoors,                               !- Outside Boundary Condition
  ,                                       !- Outside Boundary Condition Object
  SunExposed,                             !- Sun Exposure
  WindExposed,                            !- Wind Exposure
  ,                                       !- View Factor to Ground
  ,                                       !- Number of Vertices
  0, 100.579, 8.534,                      !- X,Y,Z Vertex 1 {m}
  0, 100.579, 0,                          !- X,Y,Z Vertex 2 {m}
  0, 30.4785, 0,                          !- X,Y,Z Vertex 3 {m}
  0, 30.4785, 8.534;                      !- X,Y,Z Vertex 4 {m}

OS:Construction,
  {0d0e6ca7-6fe1-4a46-9e5c-92bd69bf29e7}, !- Handle
  Metal Bldg Semi-Cond Ext Wall,          !- Name
  ,                                       !- Surface Rendering Name
  {e1a26cf5-5f00-4061-b197-5eacd96a3aee}, !- Layer 1
  {245a7ef7-00b5-4f9e-b06b-a4c184d04a98}, !- Layer 2
  {31c18d03-f117-4c6c-80f3-4f869455e9d5}; !- Layer 3

OS:Material,
  {e1a26cf5-5f00-4061-b197-5eacd96a3aee}, !- Handle
  Metal Siding,                           !- Name
  Smooth,                                 !- Roughness
  0.0015,                                 !- Thickness {m}
  44.96,                                  !- Conductivity {W/m-K}
  7688.86,                                !- Density {kg/m3}
  410,                                    !- Specific Heat {J/kg-K}
  0.9,                                    !- Thermal Absorptance
  0.2,                                    !- Solar Absorptance
  0.2;                                    !- Visible Absorptance

OS:Material,
  {245a7ef7-00b5-4f9e-b06b-a4c184d04a98}, !- Handle
  Metal Building Semi-Cond Wall Insulation, !- Name
  MediumRough,                            !- Roughness
  0.0495494599433393,                     !- Thickness {m}
  0.049,                                  !- Conductivity {W/m-K}
  265,                                    !- Density {kg/m3}
  836.8,                                  !- Specific Heat {J/kg-K}
  0.9,                                    !- Thermal Absorptance
  0.7,                                    !- Solar Absorptance
  0.7;                                    !- Visible Absorptance

OS:Material,
  {31c18d03-f117-4c6c-80f3-4f869455e9d5}, !- Handle
  1/2IN Gypsum,                           !- Name
  Smooth,                                 !- Roughness
  0.0127,                                 !- Thickness {m}
  0.16,                                   !- Conductivity {W/m-K}
  784.9,                                  !- Density {kg/m3}
  830,                                    !- Specific Heat {J/kg-K}
  0.9,                                    !- Thermal Absorptance
  0.92,                                   !- Solar Absorptance
  0.92;                                   !- Visible Absorptance

OS:Space,
  {fc1ee278-19b5-4549-8d7b-d646334d0d07}, !- Handle
  BulkStorage,                            !- Name
  {f64f83da-34ab-4031-87b5-eae806a3e24c}, !- Space Type Name
  ,                                       !- Default Construction Set Name
  ,                                       !- Default Schedule Set Name
  0,                                      !- Direction of Relative North {deg}
  0,                                      !- X Origin {m}
  0,                                      !- Y Origin {m}
  0,                                      !- Z Origin {m}
  {2fc5bd16-2adb-4f67-95b9-0aba9d6e0c58}, !- Building Story Name
  {d4a1ad68-e388-4aca-a9cf-a983c4be140a}, !- Thermal Zone Name
  Yes,                                    !- Part of Total Floor Area
  {1be85308-5a2b-47c0-a850-7be11e72f15e}; !- Design Specification Outdoor Air Object Name

OS:ThermostatSetpoint:DualSetpoint,
  {ba8fe699-aa8b-437d-a84d-5921232ed185}, !- Handle
  {da18fef3-277f-44f3-b8be-f20ffded4b78}, !- Name
  {6d1c8528-bfbe-4b63-a9c8-b81343afdef8}, !- Heating Setpoint Temperature Schedule Name
  {54648388-e9bc-4922-be60-1100879bb654}; !- Cooling Setpoint Temperature Schedule Name

OS:Schedule:Compact,
  {6d1c8528-bfbe-4b63-a9c8-b81343afdef8}, !- Handle
  HTGSETP_BulkStorage_SCH,                !- Name
  {a1a7f255-ad1e-48b6-b5b3-590ec198bcc6}, !- Schedule Type Limits Name
  Through: 12/31,                         !- Field 1
  For: AllDays,                           !- Field 2
  Until: 24:00,                           !- Field 3
  7.2;                                    !- Field 4

OS:Material:NoMass,
  {7502f24c-6e9a-4335-84c1-990cb02df430}, !- Handle
  CP02 CARPET PAD,                        !- Name
  VeryRough,                              !- Roughness
  0.2165,                                 !- Thermal Resistance {m2-K/W}
  0.9,                                    !- Thermal Absorptance
  0.7,                                    !- Solar Absorptance
  0.8;                                    !- Visible Absorptance

OS:Curve:Biquadratic,
  {974fda0b-60d0-4d31-b88b-a24bbb08ba3c}, !- Handle
  Cool-EIR-fT,                            !- Name
  0.28687133,                             !- Coefficient1 Constant
  0.023902164,                            !- Coefficient2 x
  -0.000810648,                           !- Coefficient3 x**2
  0.013458546,                            !- Coefficient4 y
  0.0003389364,                           !- Coefficient5 y**2
  -0.0004870044,                          !- Coefficient6 x*y
  -100,                                   !- Minimum Value of x {BasedOnField A2}
  100,                                    !- Maximum Value of x {BasedOnField A2}
  -100,                                   !- Minimum Value of y {BasedOnField A3}
  100;                                    !- Maximum Value of y {BasedOnField A3}

OS:Material,
  {f479d4a1-4039-4230-a3ee-adf891235f21}, !- Handle
  Std Wood 6inch,                         !- Name
  MediumSmooth,                           !- Roughness
  0.15,                                   !- Thickness {m}
  0.12,                                   !- Conductivity {W/m-K}
  540,                                    !- Density {kg/m3}
  1210,                                   !- Specific Heat {J/kg-K}
  0.9,                                    !- Thermal Absorptance
  0.7,                                    !- Solar Absorptance
  0.7;                                    !- Visible Absorptance

OS:Meter,
  {169f866e-7de4-452c-8385-1bfdb7477e87}, !- Handle
  WaterSystems:Gas,                       !- Name
  hourly,                                 !- Reporting Frequency
  False,                                  !- Meter File Only
  False;                                  !- Cumulative

OS:Surface,
  {90c9b487-5472-4118-aa44-c89df7e0fd10}, !- Handle
  Fine Storage Office_Wall_West,          !- Name
  Wall,                                   !- Surface Type
  {0d0e6ca7-6fe1-4a46-9e5c-92bd69bf29e7}, !- Construction Name
  {c5f546e4-76f4-4b41-bcd5-718fc8f302f3}, !- Space Name
  Outdoors,                               !- Outside Boundary Condition
  ,                                       !- Outside Boundary Condition Object
  SunExposed,                             !- Sun Exposure
  WindExposed,                            !- Wind Exposure
  ,                                       !- View Factor to Ground
  ,                                       !- Number of Vertices
  0, 9.1435, 8.534,                       !- X,Y,Z Vertex 1 {m}
  0, 9.1435, 4.267,                       !- X,Y,Z Vertex 2 {m}
  0, 0, 4.267,                            !- X,Y,Z Vertex 3 {m}
  0, 0, 8.534;                            !- X,Y,Z Vertex 4 {m}

OS:Space,
  {c5f546e4-76f4-4b41-bcd5-718fc8f302f3}, !- Handle
  FineStorage,                            !- Name
  {f39eef5e-38b9-4515-859b-a3bc1d815f58}, !- Space Type Name
  ,                                       !- Default Construction Set Name
  ,                                       !- Default Schedule Set Name
  0,                                      !- Direction of Relative North {deg}
  0,                                      !- X Origin {m}
  0,                                      !- Y Origin {m}
  0,                                      !- Z Origin {m}
  {2fc5bd16-2adb-4f67-95b9-0aba9d6e0c58}, !- Building Story Name
  {cbf28e0b-cf15-489c-ad29-e2cf644f2bac}, !- Thermal Zone Name
  Yes,                                    !- Part of Total Floor Area
  {05d5a7ec-17bc-4ccc-a7a6-c15ee240d05d}; !- Design Specification Outdoor Air Object Name

OS:ThermostatSetpoint:DualSetpoint,
  {0ceea0b7-19e7-499d-bb98-f03f50a84a8d}, !- Handle
  {a6966fc2-3269-450c-af58-4cfa5899add1}, !- Name
  {745e5266-715c-455f-b708-852769a2b0fb}, !- Heating Setpoint Temperature Schedule Name
  {44636c4f-6d61-4a5f-963d-79c2cfcbb9e1}; !- Cooling Setpoint Temperature Schedule Name

OS:Schedule:Compact,
  {745e5266-715c-455f-b708-852769a2b0fb}, !- Handle
  HTGSETP_FineStorage_SCH,                !- Name
  {a1a7f255-ad1e-48b6-b5b3-590ec198bcc6}, !- Schedule Type Limits Name
  Through: 12/31,                         !- Field 1
  For: AllDays,                           !- Field 2
  Until: 24:00,                           !- Field 3
  15.6;                                   !- Field 4

OS:Schedule:Compact,
  {44636c4f-6d61-4a5f-963d-79c2cfcbb9e1}, !- Handle
  CLGSETP_FineStorage_SCH,                !- Name
  {a1a7f255-ad1e-48b6-b5b3-590ec198bcc6}, !- Schedule Type Limits Name
  Through: 12/31,                         !- Field 1
  For: AllDays,                           !- Field 2
  Until: 24:00,                           !- Field 3
  26.7;                                   !- Field 4

OS:Material,
  {891f4db9-c6fc-40b7-a684-b7bfb3983905}, !- Handle
  MAT-CC05 4 HW CONCRETE,                 !- Name
  Rough,                                  !- Roughness
  0.1016,                                 !- Thickness {m}
  1.311,                                  !- Conductivity {W/m-K}
  2240,                                   !- Density {kg/m3}
  836.8,                                  !- Specific Heat {J/kg-K}
  0.9,                                    !- Thermal Absorptance
  0.7,                                    !- Solar Absorptance
  0.7;                                    !- Visible Absorptance

OS:Surface,
  {730c6032-fad5-49d0-aeb9-efee39cfc40a}, !- Handle
  FineStorage_Wall_South_1,               !- Name
  Wall,                                   !- Surface Type
  {0d0e6ca7-6fe1-4a46-9e5c-92bd69bf29e7}, !- Construction Name
  {c5f546e4-76f4-4b41-bcd5-718fc8f302f3}, !- Space Name
  Outdoors,                               !- Outside Boundary Condition
  ,                                       !- Outside Boundary Condition Object
  SunExposed,                             !- Sun Exposure
  WindExposed,                            !- Wind Exposure
  ,                                       !- View Factor to Ground
  ,                                       !- Number of Vertices
  25.9067, 0, 8.534,                      !- X,Y,Z Vertex 1 {m}
  25.9067, 0, 0,                          !- X,Y,Z Vertex 2 {m}
  45.7178, 0, 0,                          !- X,Y,Z Vertex 3 {m}
  45.7178, 0, 8.534;                      !- X,Y,Z Vertex 4 {m}

OS:Schedule:Compact,
  {acc202fc-d52a-4b69-9201-aba46b31d9ed}, !- Handle
  BLDG_EQUIP_SCH,                         !- Name
  {301d3602-3475-4087-a191-fb60348e7bf6}, !- Schedule Type Limits Name
  Through: 12/31,                         !- Field 1
  For: Weekdays,                          !- Field 2
  Until: 07:00,                           !- Field 3
  0.1,                                    !- Field 4
  Until: 08:00,                           !- Field 5
  0.5,                                    !- Field 6
  Until: 09:00,                           !- Field 7
  0.8,                                    !- Field 8
  Until: 12:00,                           !- Field 9
  0.9,                                    !- Field 10
  Until: 13:00,                           !- Field 11
  0.8,                                    !- Field 12
  Until: 17:00,                           !- Field 13
  0.9,                                    !- Field 14
  Until: 18:00,                           !- Field 15
  0.4,                                    !- Field 16
  Until: 24:00,                           !- Field 17
  0.1,                                    !- Field 18
  For: Saturday,                          !- Field 19
  Until: 08:00,                           !- Field 20
  0.1,                                    !- Field 21
  Until: 09:00,                           !- Field 22
  0.2,                                    !- Field 23
  Until: 12:00,                           !- Field 24
  0.4,                                    !- Field 25
  Until: 24:00,                           !- Field 26
  0.1,                                    !- Field 27
  For: SummerDesignDay,                   !- Field 28
  Until: 24:00,                           !- Field 29
  1.0,                                    !- Field 30
  For: WinterDesignDay,                   !- Field 31
  Until: 24:00,                           !- Field 32
  0.0,                                    !- Field 33
  For: Sunday Holidays AllOtherDays,      !- Field 34
  Until: 24:00,                           !- Field 35
  0.1;                                    !- Field 36

OS:ScheduleTypeLimits,
  {301d3602-3475-4087-a191-fb60348e7bf6}, !- Handle
  Fraction,                               !- Name
  0,                                      !- Lower Limit Value {BasedOnField A4}
  1,                                      !- Upper Limit Value {BasedOnField A4}
  CONTINUOUS;                             !- Numeric Type

OS:Schedule:Compact,
  {1fc7e87e-d2d2-4f6c-9529-ace2d66e2ff0}, !- Handle
  CLOTHING_SCH,                           !- Name
  ,                                       !- Schedule Type Limits Name
  Through: 04/30,                         !- Field 1
  For: AllDays,                           !- Field 2
  Until: 24:00,                           !- Field 3
  1.0,                                    !- Field 4
  Through: 09/30,                         !- Field 5
  For: AllDays,                           !- Field 6
  Until: 24:00,                           !- Field 7
  0.5,                                    !- Field 8
  Through: 12/31,                         !- Field 9
  For: AllDays,                           !- Field 10
  Until: 24:00,                           !- Field 11
  1.0;                                    !- Field 12

OS:ScheduleTypeLimits,
  {097ce1f1-db20-41a8-aa73-8c40cf9618ee}, !- Handle
  {53bf1cb6-80cb-4bae-92e3-581066cd0164}; !- Name

OS:Surface,
  {8453eb84-3a86-427f-bbf0-b46dedae315a}, !- Handle
  Office_Wall_North,                      !- Name
  Wall,                                   !- Surface Type
  {0d0e6ca7-6fe1-4a46-9e5c-92bd69bf29e7}, !- Construction Name
  {67e0075e-3c4c-4264-a42f-5a47d8fc019d}, !- Space Name
  Outdoors,                               !- Outside Boundary Condition
  ,                                       !- Outside Boundary Condition Object
  SunExposed,                             !- Sun Exposure
  WindExposed,                            !- Wind Exposure
  ,                                       !- View Factor to Ground
  ,                                       !- Number of Vertices
  25.9067, 9.1435, 4.267,                 !- X,Y,Z Vertex 1 {m}
  25.9067, 9.1435, 0,                     !- X,Y,Z Vertex 2 {m}
  0, 9.1435, 0,                           !- X,Y,Z Vertex 3 {m}
  0, 9.1435, 4.267;                       !- X,Y,Z Vertex 4 {m}

OS:Space,
  {67e0075e-3c4c-4264-a42f-5a47d8fc019d}, !- Handle
  Office,                                 !- Name
  {1e098322-6809-4b87-a4b5-7a7c24ab5ff3}, !- Space Type Name
  ,                                       !- Default Construction Set Name
  ,                                       !- Default Schedule Set Name
  0,                                      !- Direction of Relative North {deg}
  0,                                      !- X Origin {m}
  0,                                      !- Y Origin {m}
  0,                                      !- Z Origin {m}
  {2fc5bd16-2adb-4f67-95b9-0aba9d6e0c58}, !- Building Story Name
  {cbf28e0b-cf15-489c-ad29-e2cf644f2bac}, !- Thermal Zone Name
  Yes,                                    !- Part of Total Floor Area
  {77ccf883-039f-48ea-9a17-00ad959a869b}; !- Design Specification Outdoor Air Object Name

OS:ThermostatSetpoint:DualSetpoint,
  {0fb6dd03-c7db-4237-9d29-77b19958d9a4}, !- Handle
  {0241cc1e-8fae-4f77-a8be-9b7e2a6d4947}, !- Name
  {35aa6799-f0c9-4bc7-9835-9b1fb168b41a}, !- Heating Setpoint Temperature Schedule Name
  {54648388-e9bc-4922-be60-1100879bb654}; !- Cooling Setpoint Temperature Schedule Name

OS:Schedule:Compact,
  {35aa6799-f0c9-4bc7-9835-9b1fb168b41a}, !- Handle
  HTGSETP_SCH,                            !- Name
  {a1a7f255-ad1e-48b6-b5b3-590ec198bcc6}, !- Schedule Type Limits Name
  Through: 12/31,                         !- Field 1
  For: Weekdays,                          !- Field 2
  Until: 06:00,                           !- Field 3
  15.5,                                   !- Field 4
  Until: 17:00,                           !- Field 5
  21.0,                                   !- Field 6
  Until: 24:00,                           !- Field 7
  15.5,                                   !- Field 8
  For WinterDesignDay,                    !- Field 9
  Until: 24:00,                           !- Field 10
  21.0,                                   !- Field 11
  For: Saturday,                          !- Field 12
  Until: 07:00,                           !- Field 13
  15.5,                                   !- Field 14
  Until: 16:00,                           !- Field 15
  21.0,                                   !- Field 16
  Until: 24:00,                           !- Field 17
  15.5,                                   !- Field 18
  For: AllOtherDays,                      !- Field 19
  Until: 24:00,                           !- Field 20
  15.5;                                   !- Field 21

OS:Meter,
  {1522e882-f9ca-4706-a932-0bc27724eb50}, !- Handle
  Electricity:Facility,                   !- Name
  hourly,                                 !- Reporting Frequency
  False,                                  !- Meter File Only
  False;                                  !- Cumulative

OS:SubSurface,
  {fecd8877-258b-42e2-9a61-a61bb0798af4}, !- Handle
  FineStorage_Wall_West_1_Door_1,         !- Name
  Door,                                   !- Sub Surface Type
  {343b35a5-4b3f-40de-b4cf-5e6b22d40c48}, !- Construction Name
  {53a4a886-8043-4bb9-b1d8-69c22a31d738}, !- Surface Name
  ,                                       !- Outside Boundary Condition Object
  ,                                       !- View Factor to Ground
  ,                                       !- Shading Control Name
  ,                                       !- Frame and Divider Name
  1,                                      !- Multiplier
  ,                                       !- Number of Vertices
  0, 20.2682, 2.1335,                     !- X,Y,Z Vertex 1 {m}
  0, 20.2682, 0,                          !- X,Y,Z Vertex 2 {m}
  0, 19.3539, 0,                          !- X,Y,Z Vertex 3 {m}
  0, 19.3539, 2.1335;                     !- X,Y,Z Vertex 4 {m}

OS:Construction,
  {343b35a5-4b3f-40de-b4cf-5e6b22d40c48}, !- Handle
  Swinging Door Semi-Cond,                !- Name
  ,                                       !- Surface Rendering Name
  {c48096ff-a977-42a9-87de-a107d20f0d61}; !- Layer 1

OS:Material:NoMass,
  {c48096ff-a977-42a9-87de-a107d20f0d61}, !- Handle
  Opaque Door panel Semi-Cond,            !- Name
  MediumRough,                            !- Roughness
  0.101897046243647,                      !- Thermal Resistance {m2-K/W}
  0.9,                                    !- Thermal Absorptance
  0.7,                                    !- Solar Absorptance
  0.7;                                    !- Visible Absorptance

OS:Surface,
  {53a4a886-8043-4bb9-b1d8-69c22a31d738}, !- Handle
  FineStorage_Wall_West_1,                !- Name
  Wall,                                   !- Surface Type
  {0d0e6ca7-6fe1-4a46-9e5c-92bd69bf29e7}, !- Construction Name
  {c5f546e4-76f4-4b41-bcd5-718fc8f302f3}, !- Space Name
  Outdoors,                               !- Outside Boundary Condition
  ,                                       !- Outside Boundary Condition Object
  SunExposed,                             !- Sun Exposure
  WindExposed,                            !- Wind Exposure
  ,                                       !- View Factor to Ground
  ,                                       !- Number of Vertices
  0, 30.4785, 8.534,                      !- X,Y,Z Vertex 1 {m}
  0, 30.4785, 0,                          !- X,Y,Z Vertex 2 {m}
  0, 9.1435, 0,                           !- X,Y,Z Vertex 3 {m}
  0, 9.1435, 8.534;                       !- X,Y,Z Vertex 4 {m}

OS:InternalMass:Definition,
  {f2865e14-232b-4c14-b961-25a0e920148b}, !- Handle
  BulkStorage Internal Mass Definition,   !- Name
  {97b962b0-aec2-4616-b25e-ad64044d69f6}, !- Construction Name
  SurfaceArea,                            !- Design Level Calculation Method
  6409.6813,                              !- Surface Area {m2}
  ,                                       !- Surface Area per Space Floor Area {dimensionless}
  ;                                       !- Surface Area per Person {m2/person}

OS:Construction,
  {97b962b0-aec2-4616-b25e-ad64044d69f6}, !- Handle
  InteriorFurnishings,                    !- Name
  ,                                       !- Surface Rendering Name
  {f479d4a1-4039-4230-a3ee-adf891235f21}; !- Layer 1

OS:InternalMass,
  {00fecb52-328a-425a-9223-c7e0ce75c871}, !- Handle
  BulkStorage Internal Mass,              !- Name
  {f2865e14-232b-4c14-b961-25a0e920148b}, !- Internal Mass Definition Name
  {fc1ee278-19b5-4549-8d7b-d646334d0d07}; !- Space or SpaceType Name

OS:Material,
  {9790e18a-5558-4fcc-ba0b-0a7b408c8433}, !- Handle
  Metal Decking,                          !- Name
  MediumSmooth,                           !- Roughness
  0.0015,                                 !- Thickness {m}
  45.006,                                 !- Conductivity {W/m-K}
  7680,                                   !- Density {kg/m3}
  418.4,                                  !- Specific Heat {J/kg-K}
  0.9,                                    !- Thermal Absorptance
  0.7,                                    !- Solar Absorptance
  0.3;                                    !- Visible Absorptance

OS:Surface,
  {1b69d001-0fb7-43f2-a452-3200a18026f1}, !- Handle
  BulkStorage_Wall_North,                 !- Name
  Wall,                                   !- Surface Type
  {0d0e6ca7-6fe1-4a46-9e5c-92bd69bf29e7}, !- Construction Name
  {fc1ee278-19b5-4549-8d7b-d646334d0d07}, !- Space Name
  Outdoors,                               !- Outside Boundary Condition
  ,                                       !- Outside Boundary Condition Object
  SunExposed,                             !- Sun Exposure
  WindExposed,                            !- Wind Exposure
  ,                                       !- View Factor to Ground
  ,                                       !- Number of Vertices
  45.7178, 100.579, 8.534,                !- X,Y,Z Vertex 1 {m}
  45.7178, 100.579, 0,                    !- X,Y,Z Vertex 2 {m}
  0, 100.579, 0,                          !- X,Y,Z Vertex 3 {m}
  0, 100.579, 8.534;                      !- X,Y,Z Vertex 4 {m}

OS:Curve:Biquadratic,
  {3f83feb0-2e66-41a1-b8f5-210e72dbb5fa}, !- Handle
  Measured_CoolCStandard10Ton_CapFT,      !- Name