
OS:Version,
  {3040de01-8039-4d09-8d47-0d19452c83a1}, !- Handle
  1.8.5;                                  !- Version Identifier

OS:Site,
  {dae42998-2106-4cb5-8c89-682d3b400378}, !- Handle
  USA IL-CHICAGO-OHARE,                   !- Name
  41.77,                                  !- Latitude {deg}
  -87.75,                                 !- Longitude {deg}
  -6,                                     !- Time Zone {hr}
  190,                                    !- Elevation {m}
  City;                                   !- Terrain

OS:SimulationControl,
  {e9869a32-ac5e-475d-9555-f52111810c76}, !- Handle
  Yes,                                    !- Do Zone Sizing Calculation
  Yes,                                    !- Do System Sizing Calculation
  Yes,                                    !- Do Plant Sizing Calculation
  No,                                     !- Run Simulation for Sizing Periods
  Yes,                                    !- Run Simulation for Weather File Run Periods
  0.04,                                   !- Loads Convergence Tolerance Value
  0.2,                                    !- Temperature Convergence Tolerance Value {deltaC}
  FullInteriorAndExterior,                !- Solar Distribution
  40,                                     !- Maximum Number of Warmup Days
  6;                                      !- Minimum Number of Warmup Days

OS:SubSurface,
  {ad4de4cd-3392-4691-998a-b14f13c36dc4}, !- Handle
  Office_Wall_South Window2,              !- Name
  FixedWindow,                            !- Sub Surface Type
  {6d0fa139-629b-4c02-a3d5-59a7101ceda1}, !- Construction Name
  {15275cbe-8630-4733-9632-ed11f8bed15c}, !- Surface Name
  ,                                       !- Outside Boundary Condition Object
  ,                                       !- View Factor to Ground
  ,                                       !- Shading Control Name
  ,                                       !- Frame and Divider Name
  1,                                      !- Multiplier
  ,                                       !- Number of Vertices
  18.5919, 0, 2.4393,                     !- X,Y,Z Vertex 1 {m}
  18.5919, 0, 0.9144,                     !- X,Y,Z Vertex 2 {m}
  22.2493, 0, 0.9144,                     !- X,Y,Z Vertex 3 {m}
  22.2493, 0, 2.4393;                     !- X,Y,Z Vertex 4 {m}

OS:Construction,
  {6d0fa139-629b-4c02-a3d5-59a7101ceda1}, !- Handle
  Window Semi-Cond Fixed,                 !- Name
  ,                                       !- Surface Rendering Name
  {c523ba43-5c04-4ff8-8a8d-8c8bc9878c9e}; !- Layer 1

OS:WindowMaterial:SimpleGlazingSystem,
  {c523ba43-5c04-4ff8-8a8d-8c8bc9878c9e}, !- Handle
  Semi-Cond Fixed Assembly Window,        !- Name
  6.92716,                                !- U-Factor {W/m2-K}
  0.7;                                    !- Solar Heat Gain Coefficient

OS:Surface,
  {15275cbe-8630-4733-9632-ed11f8bed15c}, !- Handle
  Office_Wall_South,                      !- Name
  Wall,                                   !- Surface Type
  {30cbc6dd-a368-469b-aae0-cd8662db4377}, !- Construction Name
  {d7e0f22a-45d7-4c22-a825-e633f6fce5ac}, !- Space Name
  Outdoors,                               !- Outside Boundary Condition
  ,                                       !- Outside Boundary Condition Object
  SunExposed,                             !- Sun Exposure
  WindExposed,                            !- Wind Exposure
  ,                                       !- View Factor to Ground
  ,                                       !- Number of Vertices
  0, 0, 4.267,                            !- X,Y,Z Vertex 1 {m}
  0, 0, 0,                                !- X,Y,Z Vertex 2 {m}
  25.9067, 0, 0,                          !- X,Y,Z Vertex 3 {m}
  25.9067, 0, 4.267;                      !- X,Y,Z Vertex 4 {m}

OS:Construction,
  {30cbc6dd-a368-469b-aae0-cd8662db4377}, !- Handle
  Metal Bldg Semi-Cond Ext Wall,          !- Name
  ,                                       !- Surface Rendering Name
  {7b07a2c9-8143-4b46-bce4-98e088fe1b59}, !- Layer 1
  {69891c25-df36-4308-be22-448c195fb065}, !- Layer 2
  {f4d0af7a-5c23-4e8f-b449-0846232187c0}; !- Layer 3

OS:Material,
  {7b07a2c9-8143-4b46-bce4-98e088fe1b59}, !- Handle
  Metal Siding,                           !- Name
  Smooth,                                 !- Roughness
  0.0015,                                 !- Thickness {m}
  44.96,                                  !- Conductivity {W/m-K}
  7688.86,                                !- Density {kg/m3}
  410,                                    !- Specific Heat {J/kg-K}
  0.9,                                    !- Thermal Absorptance
  0.2,                                    !- Solar Absorptance
  0.2;                                    !- Visible Absorptance

OS:Material,
  {69891c25-df36-4308-be22-448c195fb065}, !- Handle
  Metal Building Semi-Cond Wall Insulation, !- Name
  MediumRough,                            !- Roughness
  0.0495494599433393,                     !- Thickness {m}
  0.049,                                  !- Conductivity {W/m-K}
  265,                                    !- Density {kg/m3}
  836.8,                                  !- Specific Heat {J/kg-K}
  0.9,                                    !- Thermal Absorptance
  0.7,                                    !- Solar Absorptance
  0.7;                                    !- Visible Absorptance

OS:Material,
  {f4d0af7a-5c23-4e8f-b449-0846232187c0}, !- Handle
  1/2IN Gypsum,                           !- Name
  Smooth,                                 !- Roughness
  0.0127,                                 !- Thickness {m}
  0.16,                                   !- Conductivity {W/m-K}
  784.9,                                  !- Density {kg/m3}
  830,                                    !- Specific Heat {J/kg-K}
  0.9,                                    !- Thermal Absorptance
  0.92,                                   !- Solar Absorptance
  0.92;                                   !- Visible Absorptance

OS:Space,
  {d7e0f22a-45d7-4c22-a825-e633f6fce5ac}, !- Handle
  Office,                                 !- Name
  {5162d7f2-1f4b-47c5-afdc-34b5b6cdfc3d}, !- Space Type Name
  ,                                       !- Default Construction Set Name
  ,                                       !- Default Schedule Set Name
  0,                                      !- Direction of Relative North {deg}
  0,                                      !- X Origin {m}
  0,                                      !- Y Origin {m}
  0,                                      !- Z Origin {m}
  {a189d1aa-c03d-45fd-be54-526c71d8315f}, !- Building Story Name
  {290d3bde-2c1f-4f3b-a13e-a6cd8225d2f2}, !- Thermal Zone Name
  Yes,                                    !- Part of Total Floor Area
  {7edb8de8-e830-4194-8c19-8bfc6d64f1ad}; !- Design Specification Outdoor Air Object Name

OS:Schedule:Compact,
  {e17f44fa-562d-47c7-83c5-5526bceeb8e9}, !- Handle
  HTGSETP_SCH,                            !- Name
  {774d11cc-cc4e-4939-9647-035f5934277e}, !- Schedule Type Limits Name
  Through: 12/31,                         !- Field 1
  For: Weekdays,                          !- Field 2
  Until: 06:00,                           !- Field 3
  15.5,                                   !- Field 4
  Until: 17:00,                           !- Field 5
  21.0,                                   !- Field 6
  Until: 24:00,                           !- Field 7
  15.5,                                   !- Field 8
  For WinterDesignDay,                    !- Field 9
  Until: 24:00,                           !- Field 10
  21.0,                                   !- Field 11
  For: Saturday,                          !- Field 12
  Until: 07:00,                           !- Field 13
  15.5,                                   !- Field 14
  Until: 16:00,                           !- Field 15
  21.0,                                   !- Field 16
  Until: 24:00,                           !- Field 17
  15.5,                                   !- Field 18
  For: AllOtherDays,                      !- Field 19
  Until: 24:00,                           !- Field 20
  15.5;                                   !- Field 21

OS:ScheduleTypeLimits,
  {774d11cc-cc4e-4939-9647-035f5934277e}, !- Handle
  Temperature,                            !- Name
  -60,                                    !- Lower Limit Value {BasedOnField A4}
  200,                                    !- Upper Limit Value {BasedOnField A4}
  CONTINUOUS,                             !- Numeric Type
  Temperature;                            !- Unit Type

OS:Schedule:Compact,
  {25bb4883-0ca5-4fe0-b37a-7a6074dd0576}, !- Handle
  CLGSETP_SCH,                            !- Name
  {774d11cc-cc4e-4939-9647-035f5934277e}, !- Schedule Type Limits Name
  Through: 12/31,                         !- Field 1
  For: Weekdays SummerDesignDay,          !- Field 2
  Until: 07:00,                           !- Field 3
  30.0,                                   !- Field 4
  Until: 17:00,                           !- Field 5
  24.0,                                   !- Field 6
  Until: 24:00,                           !- Field 7
  30.0,                                   !- Field 8
  For: Saturday,                          !- Field 9
  Until: 08:00,                           !- Field 10
  30.0,                                   !- Field 11
  Until: 16:00,                           !- Field 12
  24.0,                                   !- Field 13
  Until: 24:00,                           !- Field 14
  30.0,                                   !- Field 15
  For: AllOtherDays,                      !- Field 16
  Until: 24:00,                           !- Field 17
  30.0;                                   !- Field 18

OS:Curve:Biquadratic,
  {e1a51cfa-6072-4866-9432-c4e2de5fbfe8}, !- Handle
  Measured_CoolCStandard10Ton_EIRFT,      !- Name
  0.9847,                                 !- Coefficient1 Constant
  -0.04285,                               !- Coefficient2 x
  0.0013562,                              !- Coefficient3 x**2
  0.009934,                               !- Coefficient4 y
  0.0006398,                              !- Coefficient5 y**2
  -0.001169,                              !- Coefficient6 x*y
  11.1,                                   !- Minimum Value of x {BasedOnField A2}
  29.4,                                   !- Maximum Value of x {BasedOnField A2}
  10,                                     !- Minimum Value of y {BasedOnField A3}
  50.3;                                   !- Maximum Value of y {BasedOnField A3}

OS:SubSurface,
  {30a2ccf8-2c1c-4071-8230-750a71b5d6f4}, !- Handle
  BulkStorage_Wall_West_OHDoor_7,         !- Name
  Door,                                   !- Sub Surface Type
  {62b9d13d-629c-41c3-8fc1-4862c672928b}, !- Construction Name
  {57ec88d1-d972-4838-9488-e2e91aefccf1}, !- Surface Name
  ,                                       !- Outside Boundary Condition Object
  ,                                       !- View Factor to Ground
  ,                                       !- Shading Control Name
  ,                                       !- Frame and Divider Name
  1,                                      !- Multiplier
  ,                                       !- Number of Vertices
  0, 39.5459, 3.0478,                     !- X,Y,Z Vertex 1 {m}
  0, 39.5459, 0,                          !- X,Y,Z Vertex 2 {m}
  0, 37.1076, 0,                          !- X,Y,Z Vertex 3 {m}
  0, 37.1076, 3.0478;                     !- X,Y,Z Vertex 4 {m}

OS:Construction,
  {62b9d13d-629c-41c3-8fc1-4862c672928b}, !- Handle
  Overhead Door Semi-Cond,                !- Name
  ,                                       !- Surface Rendering Name
  {799a06d1-6d7c-4514-bcd2-71cdde433b6c}; !- Layer 1

OS:Material:NoMass,
  {799a06d1-6d7c-4514-bcd2-71cdde433b6c}, !- Handle
  Std Overhead Door Panel Semi-Cond,      !- Name
  MediumRough,                            !- Roughness
  0.001,                                  !- Thermal Resistance {m2-K/W}
  0.9,                                    !- Thermal Absorptance
  0.7,                                    !- Solar Absorptance
  0.7;                                    !- Visible Absorptance

OS:Surface,
  {57ec88d1-d972-4838-9488-e2e91aefccf1}, !- Handle
  BulkStorage_Wall_West,                  !- Name
  Wall,                                   !- Surface Type
  {30cbc6dd-a368-469b-aae0-cd8662db4377}, !- Construction Name
  {7a0e2fd9-f3a6-483d-bbe4-4205dfc05bcc}, !- Space Name
  Outdoors,                               !- Outside Boundary Condition
  ,                                       !- Outside Boundary Condition Object
  SunExposed,                             !- Sun Exposure
  WindExposed,                            !- Wind Exposure
  ,                                       !- View Factor to Ground
  ,                                       !- Number of Vertices
  0, 100.579, 8.534,                      !- X,Y,Z Vertex 1 {m}
  0, 100.579, 0,                          !- X,Y,Z Vertex 2 {m}
  0, 30.4785, 0,                          !- X,Y,Z Vertex 3 {m}
  0, 30.4785, 8.534;                      !- X,Y,Z Vertex 4 {m}

OS:Space,
  {7a0e2fd9-f3a6-483d-bbe4-4205dfc05bcc}, !- Handle
  BulkStorage,                            !- Name
  {54d75bc7-63aa-4477-83d7-996a2e2f81ce}, !- Space Type Name
  ,                                       !- Default Construction Set Name
  ,                                       !- Default Schedule Set Name
  0,                                      !- Direction of Relative North {deg}
  0,                                      !- X Origin {m}
  0,                                      !- Y Origin {m}
  0,                                      !- Z Origin {m}
  {a189d1aa-c03d-45fd-be54-526c71d8315f}, !- Building Story Name
  {a4099441-b22d-4318-a6b8-bbb1c3f3aeed}, !- Thermal Zone Name
  Yes,                                    !- Part of Total Floor Area
  {d55de88e-5d8f-46dd-8229-d029fcb7c774}; !- Design Specification Outdoor Air Object Name

OS:Schedule:Compact,
  {6cce48b4-bdbf-4732-af80-edecd20a1e20}, !- Handle
  HTGSETP_BulkStorage_SCH,                !- Name
  {774d11cc-cc4e-4939-9647-035f5934277e}, !- Schedule Type Limits Name
  Through: 12/31,                         !- Field 1
  For: AllDays,                           !- Field 2
  Until: 24:00,                           !- Field 3
  7.2;                                    !- Field 4

OS:ElectricEquipment:Definition,
  {bbeba17b-8861-4af7-9294-c81eba82d13a}, !- Handle
  Office_MiscPlug_Equip Definition,       !- Name
  Watts/Area,                             !- Design Level Calculation Method
  ,                                       !- Design Level {W}
  8.07,                                   !- Watts per Space Floor Area {W/m2}
  ,                                       !- Watts per Person {W/person}
  0,                                      !- Fraction Latent
  0.5,                                    !- Fraction Radiant
  0;                                      !- Fraction Lost

OS:ElectricEquipment,
  {a9ecc532-5b96-465e-b1a8-e43f60a50b0d}, !- Handle
  Office_MiscPlug_Equip,                  !- Name
  {bbeba17b-8861-4af7-9294-c81eba82d13a}, !- Electric Equipment Definition Name
  {d7e0f22a-45d7-4c22-a825-e633f6fce5ac}, !- Space or SpaceType Name
  {fa7b7dc6-ff15-46e5-bc64-f878441b86a7}, !- Schedule Name
  ,                                       !- Multiplier
  MiscPlug;                               !- End-Use Subcategory

OS:Schedule:Compact,
  {fa7b7dc6-ff15-46e5-bc64-f878441b86a7}, !- Handle
  BLDG_EQUIP_SCH,                         !- Name
  {51a7d2fe-946e-43a6-847f-4a50b3d8a913}, !- Schedule Type Limits Name
  Through: 12/31,                         !- Field 1
  For: Weekdays,                          !- Field 2
  Until: 07:00,                           !- Field 3
  0.1,                                    !- Field 4
  Until: 08:00,                           !- Field 5
  0.5,                                    !- Field 6
  Until: 09:00,                           !- Field 7
  0.8,                                    !- Field 8
  Until: 12:00,                           !- Field 9
  0.9,                                    !- Field 10
  Until: 13:00,                           !- Field 11
  0.8,                                    !- Field 12
  Until: 17:00,                           !- Field 13
  0.9,                                    !- Field 14
  Until: 18:00,                           !- Field 15
  0.4,                                    !- Field 16
  Until: 24:00,                           !- Field 17
  0.1,                                    !- Field 18
  For: Saturday,                          !- Field 19
  Until: 08:00,                           !- Field 20
  0.1,                                    !- Field 21
  Until: 09:00,                           !- Field 22
  0.2,                                    !- Field 23
  Until: 12:00,                           !- Field 24
  0.4,                                    !- Field 25
  Until: 24:00,                           !- Field 26
  0.1,                                    !- Field 27
  For: SummerDesignDay,                   !- Field 28
  Until: 24:00,                           !- Field 29
  1.0,                                    !- Field 30
  For: WinterDesignDay,                   !- Field 31
  Until: 24:00,                           !- Field 32
  0.0,                                    !- Field 33
  For: Sunday Holidays AllOtherDays,      !- Field 34
  Until: 24:00,                           !- Field 35
  0.1;                                    !- Field 36

OS:ScheduleTypeLimits,
  {51a7d2fe-946e-43a6-847f-4a50b3d8a913}, !- Handle
  Fraction,                               !- Name
  0,                                      !- Lower Limit Value {BasedOnField A4}
  1,                                      !- Upper Limit Value {BasedOnField A4}
  CONTINUOUS;                             !- Numeric Type

OS:InternalMass:Definition,
  {a5db3f1a-4309-4d05-90bc-f7090d2bd19a}, !- Handle
  FineStorage Internal Mass Definition,   !- Name
  {eb52abbb-10c1-4180-b4a9-d0cfb7cc52ac}, !- Construction Name
  SurfaceArea,                            !- Design Level Calculation Method
  2786.8199,                              !- Surface Area {m2}
  ,                                       !- Surface Area per Space Floor Area {dimensionless}
  ;                                       !- Surface Area per Person {m2/person}

OS:Construction,
  {eb52abbb-10c1-4180-b4a9-d0cfb7cc52ac}, !- Handle
  InteriorFurnishings,                    !- Name
  ,                                       !- Surface Rendering Name
  {6b843c45-2813-43a0-b96d-96175c5f0343}; !- Layer 1

OS:Material,
  {6b843c45-2813-43a0-b96d-96175c5f0343}, !- Handle
  Std Wood 6inch,                         !- Name
  MediumSmooth,                           !- Roughness
  0.15,                                   !- Thickness {m}
  0.12,                                   !- Conductivity {W/m-K}
  540,                                    !- Density {kg/m3}
  1210,                                   !- Specific Heat {J/kg-K}
  0.9,                                    !- Thermal Absorptance
  0.7,                                    !- Solar Absorptance
  0.7;                                    !- Visible Absorptance

OS:InternalMass,
  {91a9fc24-a694-41e8-b914-1e6e5cf9d5ab}, !- Handle
  FineStorage Internal Mass,              !- Name
  {a5db3f1a-4309-4d05-90bc-f7090d2bd19a}, !- Internal Mass Definition Name
  {1c1a6c64-846e-4e73-a492-07fedf0e06ed}; !- Space or SpaceType Name

OS:Space,
  {1c1a6c64-846e-4e73-a492-07fedf0e06ed}, !- Handle
  FineStorage,                            !- Name
  {eec02582-beb0-4196-849d-7a5583b1793f}, !- Space Type Name
  ,                                       !- Default Construction Set Name
  ,                                       !- Default Schedule Set Name
  0,                                      !- Direction of Relative North {deg}
  0,                                      !- X Origin {m}
  0,                                      !- Y Origin {m}
  0,                                      !- Z Origin {m}
  {a189d1aa-c03d-45fd-be54-526c71d8315f}, !- Building Story Name
  {290d3bde-2c1f-4f3b-a13e-a6cd8225d2f2}, !- Thermal Zone Name
  Yes,                                    !- Part of Total Floor Area
  {637e56f7-97e2-4aaf-885c-a236fecf7422}; !- Design Specification Outdoor Air Object Name

OS:Schedule:Compact,
  {3105aab0-7e99-4c3e-b84d-ffe3c17f2ed5}, !- Handle
  HTGSETP_FineStorage_SCH,                !- Name
  {774d11cc-cc4e-4939-9647-035f5934277e}, !- Schedule Type Limits Name
  Through: 12/31,                         !- Field 1
  For: AllDays,                           !- Field 2
  Until: 24:00,                           !- Field 3
  15.6;                                   !- Field 4

OS:Schedule:Compact,
  {431af306-92fa-444f-94fa-0adfa5676266}, !- Handle
  CLGSETP_FineStorage_SCH,                !- Name
  {774d11cc-cc4e-4939-9647-035f5934277e}, !- Schedule Type Limits Name
  Through: 12/31,                         !- Field 1
  For: AllDays,                           !- Field 2
  Until: 24:00,                           !- Field 3
  26.7;                                   !- Field 4

OS:ElectricEquipment:Definition,
  {4916ab5a-3347-4c78-895d-f2bba079494a}, !- Handle
  BulkStorage_MiscPlug_Equip Definition,  !- Name
  Watts/Area,                             !- Design Level Calculation Method
  ,                                       !- Design Level {W}
  2.56,                                   !- Watts per Space Floor Area {W/m2}
  ,                                       !- Watts per Person {W/person}
  0,                                      !- Fraction Latent
  0.5,                                    !- Fraction Radiant
  0;                                      !- Fraction Lost

OS:ElectricEquipment,
  {05616ad0-c6f4-4615-b68e-24c5254cbb5b}, !- Handle
  BulkStorage_MiscPlug_Equip,             !- Name
  {4916ab5a-3347-4c78-895d-f2bba079494a}, !- Electric Equipment Definition Name
  {7a0e2fd9-f3a6-483d-bbe4-4205dfc05bcc}, !- Space or SpaceType Name
  {fa7b7dc6-ff15-46e5-bc64-f878441b86a7}, !- Schedule Name
  ,                                       !- Multiplier
  MiscPlug;                               !- End-Use Subcategory

OS:Meter,
  {eb33ba0d-d57f-40b4-9555-9b55756bd741}, !- Handle
  WaterSystems:Gas,                       !- Name
  hourly,                                 !- Reporting Frequency
  False,                                  !- Meter File Only
  False;                                  !- Cumulative

OS:Schedule:Compact,
  {b8a149c9-07a7-4df0-8960-8233ba827da5}, !- Handle
  ACTIVITY_SCH,                           !- Name
  {7406e0b8-5c23-4e2f-b751-19757fab3048}, !- Schedule Type Limits Name
  Through: 12/31,                         !- Field 1
  For: AllDays,                           !- Field 2
  Until: 24:00,                           !- Field 3
  120.;                                   !- Field 4

OS:ScheduleTypeLimits,
  {316ba8d7-edaa-4256-94a1-bd96f6ffc10b}, !- Handle
  {fbf373c7-65dc-43a4-89ff-48713739efc1}; !- Name

OS:Meter,
  {ee6ec8ea-4b54-48bb-b06c-258f82e84558}, !- Handle
  Heating:Electricity,                    !- Name
  hourly,                                 !- Reporting Frequency
  False,                                  !- Meter File Only
  False;                                  !- Cumulative

OS:ConvergenceLimits,
  {26ef953b-ec61-41a0-ab7a-815ce0ecce4d}, !- Handle
  2,                                      !- Minimum System Timestep {minutes}
  25;                                     !- Maximum HVAC Iterations

OS:Material,
  {9d0b5938-2be9-4d44-8ee8-5623e502aa14}, !- Handle
  MAT-CC05 4 HW CONCRETE,                 !- Name
  Rough,                                  !- Roughness
  0.1016,                                 !- Thickness {m}
  1.311,                                  !- Conductivity {W/m-K}
  2240,                                   !- Density {kg/m3}
  836.8,                                  !- Specific Heat {J/kg-K}
  0.9,                                    !- Thermal Absorptance
  0.7,                                    !- Solar Absorptance
  0.7;                                    !- Visible Absorptance

OS:SubSurface,
  {2b10fe3c-e2db-4006-ae95-f96ab7d2ae22}, !- Handle
  BulkStorage_Wall_East_Door_3,           !- Name
  Door,                                   !- Sub Surface Type
  {7a3b64e0-0b40-4ce6-b7a4-c4873d805304}, !- Construction Name
  {ab5a9a97-6c7b-4a53-b01f-135ac53b023a}, !- Surface Name
  ,                                       !- Outside Boundary Condition Object
  ,                                       !- View Factor to Ground
  ,                                       !- Shading Control Name
  ,                                       !- Frame and Divider Name
  1,                                      !- Multiplier
  ,                                       !- Number of Vertices
  45.718, 82.5968, 2.1335,                !- X,Y,Z Vertex 1 {m}
  45.718, 82.5968, 0,                     !- X,Y,Z Vertex 2 {m}
  45.718, 83.5111, 0,                     !- X,Y,Z Vertex 3 {m}
  45.718, 83.5111, 2.1335;                !- X,Y,Z Vertex 4 {m}

OS:Construction,
  {7a3b64e0-0b40-4ce6-b7a4-c4873d805304}, !- Handle
  Swinging Door Semi-Cond,                !- Name
  ,                                       !- Surface Rendering Name
  {86d9734d-2b7c-42f9-8671-256167abbab7}; !- Layer 1

OS:Material:NoMass,
  {86d9734d-2b7c-42f9-8671-256167abbab7}, !- Handle
  Opaque Door panel Semi-Cond,            !- Name
  MediumRough,                            !- Roughness
  0.101897046243647,                      !- Thermal Resistance {m2-K/W}
  0.9,                                    !- Thermal Absorptance
  0.7,                                    !- Solar Absorptance
  0.7;                                    !- Visible Absorptance

OS:Surface,
  {ab5a9a97-6c7b-4a53-b01f-135ac53b023a}, !- Handle
  BulkStorage_Wall_East,                  !- Name
  Wall,                                   !- Surface Type
  {30cbc6dd-a368-469b-aae0-cd8662db4377}, !- Construction Name
  {7a0e2fd9-f3a6-483d-bbe4-4205dfc05bcc}, !- Space Name
  Outdoors,                               !- Outside Boundary Condition
  ,                                       !- Outside Boundary Condition Object
  SunExposed,                             !- Sun Exposure
  WindExposed,                            !- Wind Exposure
  ,                                       !- View Factor to Ground
  ,                                       !- Number of Vertices
  45.7178, 30.4785, 8.534,                !- X,Y,Z Vertex 1 {m}
  45.7178, 30.4785, 0,                    !- X,Y,Z Vertex 2 {m}
  45.7178, 100.579, 0,                    !- X,Y,Z Vertex 3 {m}
  45.7178, 100.579, 8.534;                !- X,Y,Z Vertex 4 {m}

OS:Material,
  {ddc19904-2416-4b53-9a23-5401e9f32179}, !- Handle
  Roof Membrane,                          !- Name
  VeryRough,                              !- Roughness
  0.0095,                                 !- Thickness {m}
  0.16,                                   !- Conductivity {W/m-K}
  1121.29,                                !- Density {kg/m3}
  1460,                                   !- Specific Heat {J/kg-K}
  0.9,                                    !- Thermal Absorptance
  0.7,                                    !- Solar Absorptance
  0.7;                                    !- Visible Absorptance

OS:Meter,
  {aa6ee45b-4efd-4c71-80a2-9669587a8820}, !- Handle
  ExteriorLights:Electricity,             !- Name
  hourly,                                 !- Reporting Frequency
  False,                                  !- Meter File Only
  False;                                  !- Cumulative

OS:SubSurface,
  {42f8d7e3-6a69-4d60-a3ad-c995418a5633}, !- Handle
  BulkStorage_Wall_West_OHDoor_1,         !- Name
  Door,                                   !- Sub Surface Type
  {62b9d13d-629c-41c3-8fc1-4862c672928b}, !- Construction Name
  {57ec88d1-d972-4838-9488-e2e91aefccf1}, !- Surface Name
  ,                                       !- Outside Boundary Condition Object
  ,                                       !- View Factor to Ground
  ,                                       !- Shading Control Name
  ,                                       !- Frame and Divider Name
  1,                                      !- Multiplier
  ,                                       !- Number of Vertices
  0, 93.95, 3.0478,                       !- X,Y,Z Vertex 1 {m}
  0, 93.95, 0,                            !- X,Y,Z Vertex 2 {m}
  0, 91.5117, 0,                          !- X,Y,Z Vertex 3 {m}
  0, 91.5117, 3.0478;                     !- X,Y,Z Vertex 4 {m}

OS:SizingPeriod:DesignDay,
  {e7583f6d-3d41-47a6-9a9c-d5382aafebdb}, !- Handle
  CHICAGO Ann Clg .4% Condns WB=>MDB,     !- Name
  31.2,                                   !- Maximum Dry-Bulb Temperature {C}
  10.7,                                   !- Daily Dry-Bulb Temperature Range {deltaC}
  25.5,                                   !- Humidity Indicating Conditions at Maximum Dry-Bulb {BasedOnField A3}
  99063,                                  !- Barometric Pressure {Pa}
  5.3,                                    !- Wind Speed {m/s}
  230,                                    !- Wind Direction {deg}
  1,                                      !- Sky Clearness
  0,                                      !- Rain Indicator
  0,                                      !- Snow Indicator
  21,                                     !- Day of Month
  7,                                      !- Month
  SummerDesignDay,                        !- Day Type
  0,                                      !- Daylight Saving Time Indicator
  Wetbulb,                                !- Humidity Indicating Type
  ,                                       !- Humidity Indicating Day Schedule Name