
OS:Version,
  {c082d91a-7ec4-4168-a14b-aea008c53246}, !- Handle
  1.8.0;                                  !- Version Identifier

OS:Site,
  {174db8b9-137d-45df-9454-e22369420792}, !- Handle
  USA IL-CHICAGO-OHARE,                   !- Name
  41.77,                                  !- Latitude {deg}
  -87.75,                                 !- Longitude {deg}
  -6,                                     !- Time Zone {hr}
  190,                                    !- Elevation {m}
  City;                                   !- Terrain

OS:SimulationControl,
  {7349a055-1182-4313-b6c7-5333d0ccd9af}, !- Handle
  Yes,                                    !- Do Zone Sizing Calculation
  Yes,                                    !- Do System Sizing Calculation
  Yes,                                    !- Do Plant Sizing Calculation
  No,                                     !- Run Simulation for Sizing Periods
  Yes,                                    !- Run Simulation for Weather File Run Periods
  0.04,                                   !- Loads Convergence Tolerance Value
  0.2,                                    !- Temperature Convergence Tolerance Value {deltaC}
  FullInteriorAndExterior,                !- Solar Distribution
  40,                                     !- Maximum Number of Warmup Days
  6;                                      !- Minimum Number of Warmup Days

OS:InternalMass:Definition,
  {83a7337c-feed-493c-a55e-bce7cdac645b}, !- Handle
  Office Internal Mass Definition,        !- Name
  {402b28fc-7a31-4701-a4da-e5f716936430}, !- Construction Name
  SurfaceArea,                            !- Design Level Calculation Method
  473.7584,                               !- Surface Area {m2}
  ,                                       !- Surface Area per Space Floor Area {dimensionless}
  ;                                       !- Surface Area per Person {m2/person}

OS:Construction,
  {402b28fc-7a31-4701-a4da-e5f716936430}, !- Handle
  InteriorFurnishings,                    !- Name
  ,                                       !- Surface Rendering Name
  {31a4b3d9-9ab5-4b5d-a7fb-043c99e768d3}; !- Layer 1

OS:Material,
  {31a4b3d9-9ab5-4b5d-a7fb-043c99e768d3}, !- Handle
  Std Wood 6inch,                         !- Name
  MediumSmooth,                           !- Roughness
  0.15,                                   !- Thickness {m}
  0.12,                                   !- Conductivity {W/m-K}
  540,                                    !- Density {kg/m3}
  1210,                                   !- Specific Heat {J/kg-K}
  0.9,                                    !- Thermal Absorptance
  0.7,                                    !- Solar Absorptance
  0.7;                                    !- Visible Absorptance

OS:InternalMass,
  {0393603d-abf6-4fc6-99f8-9979ed9a816d}, !- Handle
  Office Internal Mass,                   !- Name
  {83a7337c-feed-493c-a55e-bce7cdac645b}, !- Internal Mass Definition Name
  {db214bef-4de9-44ac-bb7f-62503b0da2e6}; !- Space or SpaceType Name

OS:Space,
  {db214bef-4de9-44ac-bb7f-62503b0da2e6}, !- Handle
  Office,                                 !- Name
  {3ae33aa4-db6b-446c-a042-432269f64938}, !- Space Type Name
  ,                                       !- Default Construction Set Name
  ,                                       !- Default Schedule Set Name
  0,                                      !- Direction of Relative North {deg}
  0,                                      !- X Origin {m}
  0,                                      !- Y Origin {m}
  0,                                      !- Z Origin {m}
  {d1b930f4-7808-420e-a06c-6334425c56c3}, !- Building Story Name
  {ca101a18-724d-4b08-8d40-5002d8c6a7a9}, !- Thermal Zone Name
  Yes,                                    !- Part of Total Floor Area
  {3c6bf1ee-d710-43c7-8a46-c5ccd34df57c}; !- Design Specification Outdoor Air Object Name

OS:ThermostatSetpoint:DualSetpoint,
  {b208cb92-01f5-4379-b9f3-8aaf95d99dc9}, !- Handle
  {b1b50db1-8ecb-42e3-ae6a-72832337e7e6}, !- Name
  {1989b856-d8ed-4a76-abad-214aefc6f101}, !- Heating Setpoint Temperature Schedule Name
  {3599dca8-eaeb-4315-88ea-4fff3b1569fd}; !- Cooling Setpoint Temperature Schedule Name

OS:Schedule:Compact,
  {1989b856-d8ed-4a76-abad-214aefc6f101}, !- Handle
  HTGSETP_SCH,                            !- Name
  {9c0f8bd9-b529-4a5b-a872-7c00418af439}, !- Schedule Type Limits Name
  Through: 12/31,                         !- Field 1
  For: Weekdays,                          !- Field 2
  Until: 06:00,                           !- Field 3
  15.5,                                   !- Field 4
  Until: 17:00,                           !- Field 5
  21.0,                                   !- Field 6
  Until: 24:00,                           !- Field 7
  15.5,                                   !- Field 8
  For WinterDesignDay,                    !- Field 9
  Until: 24:00,                           !- Field 10
  21.0,                                   !- Field 11
  For: Saturday,                          !- Field 12
  Until: 07:00,                           !- Field 13
  15.5,                                   !- Field 14
  Until: 16:00,                           !- Field 15
  21.0,                                   !- Field 16
  Until: 24:00,                           !- Field 17
  15.5,                                   !- Field 18
  For: AllOtherDays,                      !- Field 19
  Until: 24:00,                           !- Field 20
  15.5;                                   !- Field 21

OS:ScheduleTypeLimits,
  {9c0f8bd9-b529-4a5b-a872-7c00418af439}, !- Handle
  Temperature,                            !- Name
  -60,                                    !- Lower Limit Value {BasedOnField A4}
  200,                                    !- Upper Limit Value {BasedOnField A4}
  CONTINUOUS,                             !- Numeric Type
  Temperature;                            !- Unit Type

OS:Schedule:Compact,
  {3599dca8-eaeb-4315-88ea-4fff3b1569fd}, !- Handle
  CLGSETP_SCH,                            !- Name
  {9c0f8bd9-b529-4a5b-a872-7c00418af439}, !- Schedule Type Limits Name
  Through: 12/31,                         !- Field 1
  For: Weekdays SummerDesignDay,          !- Field 2
  Until: 07:00,                           !- Field 3
  30.0,                                   !- Field 4
  Until: 17:00,                           !- Field 5
  24.0,                                   !- Field 6
  Until: 24:00,                           !- Field 7
  30.0,                                   !- Field 8
  For: Saturday,                          !- Field 9
  Until: 08:00,                           !- Field 10
  30.0,                                   !- Field 11
  Until: 16:00,                           !- Field 12
  24.0,                                   !- Field 13
  Until: 24:00,                           !- Field 14
  30.0,                                   !- Field 15
  For: AllOtherDays,                      !- Field 16
  Until: 24:00,                           !- Field 17
  30.0;                                   !- Field 18

OS:Timestep,
  {e74218ad-ad52-48d9-b9c3-e76cd8944882}, !- Handle
  6;                                      !- Number of Timesteps per Hour

OS:Curve:Cubic,
  {c50f5985-9902-4e88-a1ad-3f91f2950e8f}, !- Handle
  ConstantCubic,                          !- Name
  1,                                      !- Coefficient1 Constant
  0,                                      !- Coefficient2 x
  0,                                      !- Coefficient3 x**2
  0,                                      !- Coefficient4 x**3
  -100,                                   !- Minimum Value of x {BasedOnField A2}
  100;                                    !- Maximum Value of x {BasedOnField A2}

OS:Meter,
  {9e2a6d28-1fec-4c21-8417-fd30b2674f73}, !- Handle
  Refrigeration:Electricity,              !- Name
  hourly,                                 !- Reporting Frequency
  False,                                  !- Meter File Only
  False;                                  !- Cumulative

OS:Material,
  {225ff730-2999-4a2d-ad0b-c5129091cc86}, !- Handle
  Metal Building Semi-Cond Wall Insulation, !- Name
  MediumRough,                            !- Roughness
  0.0495494599433393,                     !- Thickness {m}
  0.049,                                  !- Conductivity {W/m-K}
  265,                                    !- Density {kg/m3}
  836.8,                                  !- Specific Heat {J/kg-K}
  0.9,                                    !- Thermal Absorptance
  0.7,                                    !- Solar Absorptance
  0.7;                                    !- Visible Absorptance

OS:Schedule:Compact,
  {418fcf90-fd8f-4a2b-9f80-85def1e47562}, !- Handle
  ALWAYS_ON,                              !- Name
  {9b5fad0d-0fd7-4e27-a8fa-403380884043}, !- Schedule Type Limits Name
  Through: 12/31,                         !- Field 1
  For: AllDays,                           !- Field 2
  Until: 24:00,                           !- Field 3
  1;                                      !- Field 4

OS:ScheduleTypeLimits,
  {9b5fad0d-0fd7-4e27-a8fa-403380884043}, !- Handle
  On/Off,                                 !- Name
  0,                                      !- Lower Limit Value {BasedOnField A4}
  1,                                      !- Upper Limit Value {BasedOnField A4}
  DISCRETE,                               !- Numeric Type
  Availability;                           !- Unit Type

OS:Meter,
  {0a168854-e025-4f33-a901-8ec99ade7379}, !- Handle
  WaterSystems:Electricity,               !- Name
  hourly,                                 !- Reporting Frequency
  False,                                  !- Meter File Only
  False;                                  !- Cumulative

OS:Material,
  {585e835b-6f4d-438f-9ab9-866948b6306c}, !- Handle
  Roof Membrane,                          !- Name
  VeryRough,                              !- Roughness
  0.0095,                                 !- Thickness {m}
  0.16,                                   !- Conductivity {W/m-K}
  1121.29,                                !- Density {kg/m3}
  1460,                                   !- Specific Heat {J/kg-K}
  0.9,                                    !- Thermal Absorptance
  0.7,                                    !- Solar Absorptance
  0.7;                                    !- Visible Absorptance

OS:Meter,
  {35bd9453-72c8-43c7-a698-7f605d053c3d}, !- Handle
  Cooling:Electricity,                    !- Name
  hourly,                                 !- Reporting Frequency
  False,                                  !- Meter File Only
  False;                                  !- Cumulative

OS:SubSurface,
  {0324031b-faf1-45c4-8ef2-428d002c46b0}, !- Handle
  BulkStorage_Wall_West_OHDoor_4,         !- Name
  Door,                                   !- Sub Surface Type
  {08035220-6934-484d-b4ad-d3852d58def4}, !- Construction Name
  {6997623f-7dda-4ca8-a766-d71cc21edfd3}, !- Surface Name
  ,                                       !- Outside Boundary Condition Object
  ,                                       !- View Factor to Ground
  ,                                       !- Shading Control Name
  ,                                       !- Frame and Divider Name
  1,                                      !- Multiplier
  ,                                       !- Number of Vertices
  0, 66.7479, 3.0478,                     !- X,Y,Z Vertex 1 {m}
  0, 66.7479, 0,                          !- X,Y,Z Vertex 2 {m}
  0, 64.3097, 0,                          !- X,Y,Z Vertex 3 {m}
  0, 64.3097, 3.0478;                     !- X,Y,Z Vertex 4 {m}

OS:Construction,
  {08035220-6934-484d-b4ad-d3852d58def4}, !- Handle
  Overhead Door Semi-Cond,                !- Name
  ,                                       !- Surface Rendering Name
  {68049eff-d1ab-4235-b721-9c3e4d93f13f}; !- Layer 1

OS:Material:NoMass,
  {68049eff-d1ab-4235-b721-9c3e4d93f13f}, !- Handle
  Std Overhead Door Panel Semi-Cond,      !- Name
  MediumRough,                            !- Roughness
  0.001,                                  !- Thermal Resistance {m2-K/W}
  0.9,                                    !- Thermal Absorptance
  0.7,                                    !- Solar Absorptance
  0.7;                                    !- Visible Absorptance

OS:Surface,
  {6997623f-7dda-4ca8-a766-d71cc21edfd3}, !- Handle
  BulkStorage_Wall_West,                  !- Name
  Wall,                                   !- Surface Type
  {d1faa833-3389-476c-a995-7b26643e80f1}, !- Construction Name
  {929b7a66-dc4e-4a3e-8f50-69941c52e361}, !- Space Name
  Outdoors,                               !- Outside Boundary Condition
  ,                                       !- Outside Boundary Condition Object
  SunExposed,                             !- Sun Exposure
  WindExposed,                            !- Wind Exposure
  ,                                       !- View Factor to Ground
  ,                                       !- Number of Vertices
  0, 100.579, 8.534,                      !- X,Y,Z Vertex 1 {m}
  0, 100.579, 0,                          !- X,Y,Z Vertex 2 {m}
  0, 30.4785, 0,                          !- X,Y,Z Vertex 3 {m}
  0, 30.4785, 8.534;                      !- X,Y,Z Vertex 4 {m}

OS:Construction,
  {d1faa833-3389-476c-a995-7b26643e80f1}, !- Handle
  Metal Bldg Semi-Cond Ext Wall,          !- Name
  ,                                       !- Surface Rendering Name
  {d336085a-6dda-4c1d-907b-32dda3147dc3}, !- Layer 1
  {225ff730-2999-4a2d-ad0b-c5129091cc86}, !- Layer 2
  {4dcd004c-f1ca-4280-b8d7-e16d8b8e9f56}; !- Layer 3

OS:Material,
  {d336085a-6dda-4c1d-907b-32dda3147dc3}, !- Handle
  Metal Siding,                           !- Name
  Smooth,                                 !- Roughness
  0.0015,                                 !- Thickness {m}
  44.96,                                  !- Conductivity {W/m-K}
  7688.86,                                !- Density {kg/m3}
  410,                                    !- Specific Heat {J/kg-K}
  0.9,                                    !- Thermal Absorptance
  0.2,                                    !- Solar Absorptance
  0.2;                                    !- Visible Absorptance

OS:Material,
  {4dcd004c-f1ca-4280-b8d7-e16d8b8e9f56}, !- Handle
  1/2IN Gypsum,                           !- Name
  Smooth,                                 !- Roughness
  0.0127,                                 !- Thickness {m}
  0.16,                                   !- Conductivity {W/m-K}
  784.9,                                  !- Density {kg/m3}
  830,                                    !- Specific Heat {J/kg-K}
  0.9,                                    !- Thermal Absorptance
  0.92,                                   !- Solar Absorptance
  0.92;                                   !- Visible Absorptance

OS:Space,
  {929b7a66-dc4e-4a3e-8f50-69941c52e361}, !- Handle
  BulkStorage,                            !- Name
  {958894e8-4450-47c2-b3a0-f0151a9fb42d}, !- Space Type Name
  ,                                       !- Default Construction Set Name
  ,                                       !- Default Schedule Set Name
  0,                                      !- Direction of Relative North {deg}
  0,                                      !- X Origin {m}
  0,                                      !- Y Origin {m}
  0,                                      !- Z Origin {m}
  {d1b930f4-7808-420e-a06c-6334425c56c3}, !- Building Story Name
  {8cffc7c0-108c-44ce-b48e-b4088d97dc69}, !- Thermal Zone Name
  Yes,                                    !- Part of Total Floor Area
  {c6ec39c6-ad16-4fdc-b3f4-458762ce2b91}; !- Design Specification Outdoor Air Object Name

OS:ThermostatSetpoint:DualSetpoint,
  {a6a0b858-eec2-4584-a42c-58547c08251c}, !- Handle
  {41b7d3eb-8df3-4ded-983c-776afb14b029}, !- Name
  {b1f10a85-1ed1-4ca2-b4c3-a40bb179e897}, !- Heating Setpoint Temperature Schedule Name
  {3599dca8-eaeb-4315-88ea-4fff3b1569fd}; !- Cooling Setpoint Temperature Schedule Name

OS:Schedule:Compact,
  {b1f10a85-1ed1-4ca2-b4c3-a40bb179e897}, !- Handle
  HTGSETP_BulkStorage_SCH,                !- Name
  {9c0f8bd9-b529-4a5b-a872-7c00418af439}, !- Schedule Type Limits Name
  Through: 12/31,                         !- Field 1
  For: AllDays,                           !- Field 2
  Until: 24:00,                           !- Field 3
  7.2;                                    !- Field 4

OS:ThermostatSetpoint:DualSetpoint,
  {663d0399-f398-4fe6-bf0c-008d59d6ec68}, !- Handle
  {a518dab6-7524-4967-a251-f50ddc026863}, !- Name
  {2ea839e0-ec07-4a76-8a97-9b7a78f365d2}, !- Heating Setpoint Temperature Schedule Name
  {df9601dd-b85f-46d2-973d-8b0e640e4015}; !- Cooling Setpoint Temperature Schedule Name

OS:Schedule:Compact,
  {2ea839e0-ec07-4a76-8a97-9b7a78f365d2}, !- Handle
  HTGSETP_FineStorage_SCH,                !- Name
  {9c0f8bd9-b529-4a5b-a872-7c00418af439}, !- Schedule Type Limits Name
  Through: 12/31,                         !- Field 1
  For: AllDays,                           !- Field 2
  Until: 24:00,                           !- Field 3
  15.6;                                   !- Field 4

OS:Schedule:Compact,
  {df9601dd-b85f-46d2-973d-8b0e640e4015}, !- Handle
  CLGSETP_FineStorage_SCH,                !- Name
  {9c0f8bd9-b529-4a5b-a872-7c00418af439}, !- Schedule Type Limits Name
  Through: 12/31,                         !- Field 1
  For: AllDays,                           !- Field 2
  Until: 24:00,                           !- Field 3
  26.7;                                   !- Field 4

OS:Schedule:Compact,
  {63101151-f3fc-4623-95b0-28fa3b588d27}, !- Handle
  AIR_VELO_SCH,                           !- Name
  ,                                       !- Schedule Type Limits Name
  Through: 12/31,                         !- Field 1
  For: AllDays,                           !- Field 2
  Until: 24:00,                           !- Field 3
  0.2;                                    !- Field 4

OS:ScheduleTypeLimits,
  {8ccf226c-7dae-4d39-a214-a0e7d45d4090}, !- Handle
  {28ffbe10-a3a2-48e2-a485-2bdec7899d34}; !- Name

OS:SubSurface,
  {9125f1cb-2ee2-4a37-bdf0-ba9060ddaa6f}, !- Handle
  Office_Wall_West Door,                  !- Name
  Door,                                   !- Sub Surface Type
  {f4be4c5c-28ef-4bee-8b87-6734956dc172}, !- Construction Name
  {146207fe-ada1-40b0-8a14-5d113f117f5b}, !- Surface Name
  ,                                       !- Outside Boundary Condition Object
  ,                                       !- View Factor to Ground
  ,                                       !- Shading Control Name
  ,                                       !- Frame and Divider Name
  1,                                      !- Multiplier
  ,                                       !- Number of Vertices
  0, 5.029, 2.1335,                       !- X,Y,Z Vertex 1 {m}
  0, 5.029, 0,                            !- X,Y,Z Vertex 2 {m}
  0, 4.1146, 0,                           !- X,Y,Z Vertex 3 {m}
  0, 4.1146, 2.1335;                      !- X,Y,Z Vertex 4 {m}

OS:Construction,
  {f4be4c5c-28ef-4bee-8b87-6734956dc172}, !- Handle
  Swinging Door Semi-Cond,                !- Name
  ,                                       !- Surface Rendering Name
  {285c9be9-4f0b-49a4-9aa4-d172e863ee34}; !- Layer 1

OS:Material:NoMass,
  {285c9be9-4f0b-49a4-9aa4-d172e863ee34}, !- Handle
  Opaque Door panel Semi-Cond,            !- Name
  MediumRough,                            !- Roughness
  0.101897046243647,                      !- Thermal Resistance {m2-K/W}
  0.9,                                    !- Thermal Absorptance
  0.7,                                    !- Solar Absorptance
  0.7;                                    !- Visible Absorptance

OS:Surface,
  {146207fe-ada1-40b0-8a14-5d113f117f5b}, !- Handle
  Office_Wall_West,                       !- Name
  Wall,                                   !- Surface Type
  {d1faa833-3389-476c-a995-7b26643e80f1}, !- Construction Name
  {db214bef-4de9-44ac-bb7f-62503b0da2e6}, !- Space Name
  Outdoors,                               !- Outside Boundary Condition
  ,                                       !- Outside Boundary Condition Object
  SunExposed,                             !- Sun Exposure
  WindExposed,                            !- Wind Exposure
  ,                                       !- View Factor to Ground
  ,                                       !- Number of Vertices
  0, 9.1435, 4.267,                       !- X,Y,Z Vertex 1 {m}
  0, 9.1435, 0,                           !- X,Y,Z Vertex 2 {m}
  0, 0, 0,                                !- X,Y,Z Vertex 3 {m}
  0, 0, 4.267;                            !- X,Y,Z Vertex 4 {m}

OS:HeatBalanceAlgorithm,
  {82836f08-8e59-4881-ae37-3a3938d4662e}, !- Handle
  ConductionTransferFunction,             !- Algorithm
  200;                                    !- Surface Temperature Upper Limit {F}

OS:SubSurface,
  {1aa3befd-dc6a-4fce-9e3e-5cbba62af59d}, !- Handle
  BulkStorage_Wall_West_OHDoor_5,         !- Name
  Door,                                   !- Sub Surface Type
  {08035220-6934-484d-b4ad-d3852d58def4}, !- Construction Name
  {6997623f-7dda-4ca8-a766-d71cc21edfd3}, !- Surface Name
  ,                                       !- Outside Boundary Condition Object
  ,                                       !- View Factor to Ground
  ,                                       !- Shading Control Name
  ,                                       !- Frame and Divider Name
  1,                                      !- Multiplier
  ,                                       !- Number of Vertices
  0, 57.6806, 3.0478,                     !- X,Y,Z Vertex 1 {m}
  0, 57.6806, 0,                          !- X,Y,Z Vertex 2 {m}
  0, 55.2423, 0,                          !- X,Y,Z Vertex 3 {m}
  0, 55.2423, 3.0478;                     !- X,Y,Z Vertex 4 {m}

OS:Meter,
  {28587151-adf5-45f0-a52d-dd4fba3450ab}, !- Handle
  ExteriorLights:Electricity,             !- Name
  hourly,                                 !- Reporting Frequency
  False,                                  !- Meter File Only
  False;                                  !- Cumulative

OS:Schedule:Compact,
  {1e365744-7b42-4642-96cf-862d73c6e325}, !- Handle
  CLOTHING_SCH,                           !- Name
  ,                                       !- Schedule Type Limits Name
  Through: 04/30,                         !- Field 1
  For: AllDays,                           !- Field 2
  Until: 24:00,                           !- Field 3
  1.0,                                    !- Field 4
  Through: 09/30,                         !- Field 5
  For: AllDays,                           !- Field 6
  Until: 24:00,                           !- Field 7
  0.5,                                    !- Field 8
  Through: 12/31,                         !- Field 9
  For: AllDays,                           !- Field 10
  Until: 24:00,                           !- Field 11
  1.0;                                    !- Field 12

OS:ScheduleTypeLimits,
  {28f08de5-d9d6-4661-b1df-f877fa9f5d6f}, !- Handle
  {6d0b7492-80a0-4ef0-b6a1-7cc0ca643b3b}; !- Name

OS:SubSurface,
  {ed5c499d-4202-41b7-840b-fb36a9db1209}, !- Handle
  BulkStorage_Wall_East_Door_1,           !- Name
  Door,                                   !- Sub Surface Type
  {f4be4c5c-28ef-4bee-8b87-6734956dc172}, !- Construction Name
  {6a4c6661-8149-4344-85e9-a5ea7841a3ef}, !- Surface Name
  ,                                       !- Outside Boundary Condition Object
  ,                                       !- View Factor to Ground
  ,                                       !- Shading Control Name
  ,                                       !- Frame and Divider Name
  1,                                      !- Multiplier
  ,                                       !- Number of Vertices
  45.718, 47.5465, 2.1335,                !- X,Y,Z Vertex 1 {m}
  45.718, 47.5465, 0,                     !- X,Y,Z Vertex 2 {m}
  45.718, 48.4608, 0,                     !- X,Y,Z Vertex 3 {m}
  45.718, 48.4608, 2.1335;                !- X,Y,Z Vertex 4 {m}

OS:Surface,
  {6a4c6661-8149-4344-85e9-a5ea7841a3ef}, !- Handle
  BulkStorage_Wall_East,                  !- Name
  Wall,                                   !- Surface Type
  {d1faa833-3389-476c-a995-7b26643e80f1}, !- Construction Name
  {929b7a66-dc4e-4a3e-8f50-69941c52e361}, !- Space Name
  Outdoors,                               !- Outside Boundary Condition
  ,                                       !- Outside Boundary Condition Object
  SunExposed,                             !- Sun Exposure
  WindExposed,                            !- Wind Exposure
  ,                                       !- View Factor to Ground
  ,                                       !- Number of Vertices
  45.7178, 30.4785, 8.534,                !- X,Y,Z Vertex 1 {m}
  45.7178, 30.4785, 0,                    !- X,Y,Z Vertex 2 {m}
  45.7178, 100.579, 0,                    !- X,Y,Z Vertex 3 {m}
  45.7178, 100.579, 8.534;                !- X,Y,Z Vertex 4 {m}

OS:Meter,
  {1829cc99-b8ba-47f6-b22c-7f8ab4dc097a}, !- Handle
  Humidifier:Electricity,                 !- Name
  hourly,                                 !- Reporting Frequency
  False,                                  !- Meter File Only
  False;                                  !- Cumulative

OS:SubSurface,
  {27ae474a-51a1-4bf3-9c4d-5942df3fe7b8}, !- Handle
  Office_Wall_South_Door_1,               !- Name
  Door,                                   !- Sub Surface Type
  {f4be4c5c-28ef-4bee-8b87-6734956dc172}, !- Construction Name
  {fd0d18ab-e46e-4a07-8880-e901cd8ea04b}, !- Surface Name
  ,                                       !- Outside Boundary Condition Object
  ,                                       !- View Factor to Ground
  ,                                       !- Shading Control Name
  ,                                       !- Frame and Divider Name
  1,                                      !- Multiplier
  ,                                       !- Number of Vertices
  12.039, 0, 2.1335,                      !- X,Y,Z Vertex 1 {m}
  12.039, 0, 0,                           !- X,Y,Z Vertex 2 {m}
  13.868, 0, 0,                           !- X,Y,Z Vertex 3 {m}
  13.868, 0, 2.1335;                      !- X,Y,Z Vertex 4 {m}

OS:Surface,
  {fd0d18ab-e46e-4a07-8880-e901cd8ea04b}, !- Handle
  Office_Wall_South,                      !- Name
  Wall,                                   !- Surface Type
  {d1faa833-3389-476c-a995-7b26643e80f1}, !- Construction Name
  {db214bef-4de9-44ac-bb7f-62503b0da2e6}, !- Space Name
  Outdoors,                               !- Outside Boundary Condition
  ,                                       !- Outside Boundary Condition Object
  SunExposed,                             !- Sun Exposure
  WindExposed,                            !- Wind Exposure
  ,                                       !- View Factor to Ground
  ,                                       !- Number of Vertices
  0, 0, 4.267,                            !- X,Y,Z Vertex 1 {m}
  0, 0, 0,                                !- X,Y,Z Vertex 2 {m}
  25.9067, 0, 0,                          !- X,Y,Z Vertex 3 {m}
  25.9067, 0, 4.267;                      !- X,Y,Z Vertex 4 {m}

OS:ScheduleTypeLimits,
  {8b6cd7df-700f-49cd-a7c2-0f46770505cf}, !- Handle
  Humidity,                               !- Name
  10,                                     !- Lower Limit Value {BasedOnField A4}
  90,                                     !- Upper Limit Value {BasedOnField A4}
  CONTINUOUS;                             !- Numeric Type

OS:SubSurface,
  {f3fad9b4-1e10-478f-9b35-8cb91ed55bf9}, !- Handle
  BulkStorage_Wall_East_Door_3,           !- Name
  Door,                                   !- Sub Surface Type
  {f4be4c5c-28ef-4bee-8b87-6734956dc172}, !- Construction Name
  {6a4c6661-8149-4344-85e9-a5ea7841a3ef}, !- Surface Name
  ,                                       !- Outside Boundary Condition Object
  ,                                       !- View Factor to Ground
  ,                                       !- Shading Control Name
  ,                                       !- Frame and Divider Name
  1,                                      !- Multiplier
  ,                                       !- Number of Vertices
  45.718, 82.5968, 2.1335,                !- X,Y,Z Vertex 1 {m}
  45.718, 82.5968, 0,                     !- X,Y,Z Vertex 2 {m}
  45.718, 83.5111, 0,                     !- X,Y,Z Vertex 3 {m}
  45.718, 83.5111, 2.1335;                !- X,Y,Z Vertex 4 {m}

OS:Construction,
  {5cf372d1-6e34-4982-8ad3-50d9440bf05c}, !- Handle
  ext-slab,                               !- Name
  ,                                       !- Surface Rendering Name
  {484bf708-ac39-4015-ba93-5a816a23c5a6}; !- Layer 1

OS:Material,
  {484bf708-ac39-4015-ba93-5a816a23c5a6}, !- Handle
  HW CONCRETE,                            !- Name
  Rough,                                  !- Roughness
  0.2032,                                 !- Thickness {m}
  1.311,                                  !- Conductivity {W/m-K}
  2240,                                   !- Density {kg/m3}
  836.8,                                  !- Specific Heat {J/kg-K}
  0.9,                                    !- Thermal Absorptance
  0.7,                                    !- Solar Absorptance
  0.7;                                    !- Visible Absorptance

OS:Space,
  {28920991-9662-4dcc-9121-558e46a48d0b}, !- Handle
  FineStorage,                            !- Name
  {ddf866b9-18d2-4b7b-93e7-7a1e52bceb82}, !- Space Type Name
  ,                                       !- Default Construction Set Name
  ,                                       !- Default Schedule Set Name
  0,                                      !- Direction of Relative North {deg}
  0,                                      !- X Origin {m}
  0,                                      !- Y Origin {m}
  0,                                      !- Z Origin {m}